C10H16O
APtclcactv05262212113D 0   0.00000     0.00000
 
 27 28  0  0  1  0  0  0  0  0999 V2000
    2.0471    0.7771    1.1594 C   0  0  0  0  0  0  0  0  0  0  0  0
    1.1788    0.0790    0.1108 C   0  0  0  0  0  0  0  0  0  0  0  0
    2.0068   -0.2445   -1.1345 C   0  0  0  0  0  0  0  0  0  0  0  0
    0.5560   -1.2231    0.7015 C   0  0  2  0  0  0  0  0  0  0  0  0
    1.2117   -1.8264    1.3292 H   0  0  0  0  0  0  0  0  0  0  0  0
   -0.0683   -1.9457   -0.5317 C   0  0  0  0  0  0  0  0  0  0  0  0
   -1.2649   -1.0545   -0.9367 C   0  0  0  0  0  0  0  0  0  0  0  0
   -1.2517    0.1137    0.0959 C   0  0  1  0  0  0  0  0  0  0  0  0
   -2.5652    0.8831    0.2498 C   0  0  0  0  0  0  0  0  0  0  0  0
   -0.7228   -0.6309    1.3940 C   0  0  0  0  0  0  0  0  0  0  0  0
   -0.0118    0.9523   -0.2573 C   0  0  0  0  0  0  0  0  0  0  0  0
    0.0106    2.0582   -0.7418 O   0  0  0  0  0  0  0  0  0  0  0  0
    2.4529    1.6979    0.7406 H   0  0  0  0  0  0  0  0  0  0  0  0
    1.4413    1.0121    2.0346 H   0  0  0  0  0  0  0  0  0  0  0  0
    2.8655    0.1186    1.4503 H   0  0  0  0  0  0  0  0  0  0  0  0
    2.7379   -1.0164   -0.8943 H   0  0  0  0  0  0  0  0  0  0  0  0
    1.3481   -0.6018   -1.9261 H   0  0  0  0  0  0  0  0  0  0  0  0
    2.5242    0.6541   -1.4704 H   0  0  0  0  0  0  0  0  0  0  0  0
    0.6551   -2.0042   -1.3450 H   0  0  0  0  0  0  0  0  0  0  0  0
   -0.4124   -2.9423   -0.2550 H   0  0  0  0  0  0  0  0  0  0  0  0
   -1.1278   -0.6700   -1.9474 H   0  0  0  0  0  0  0  0  0  0  0  0
   -2.1974   -1.6144   -0.8653 H   0  0  0  0  0  0  0  0  0  0  0  0
   -3.3545    0.1966    0.5562 H   0  0  0  0  0  0  0  0  0  0  0  0
   -2.4452    1.6593    1.0055 H   0  0  0  0  0  0  0  0  0  0  0  0
   -2.8316    1.3413   -0.7026 H   0  0  0  0  0  0  0  0  0  0  0  0
   -1.4055   -1.4139    1.7242 H   0  0  0  0  0  0  0  0  0  0  0  0
   -0.4862    0.0657    2.1983 H   0  0  0  0  0  0  0  0  0  0  0  0
  1  2  1  0  0  0  0
  2  3  1  0  0  0  0
  2  4  1  0  0  0  0
  4  5  1  0  0  0  0
  4  6  1  0  0  0  0
  6  7  1  0  0  0  0
  7  8  1  0  0  0  0
  8  9  1  0  0  0  0
  8 10  1  0  0  0  0
  4 10  1  0  0  0  0
  8 11  1  0  0  0  0
  2 11  1  0  0  0  0
 11 12  2  0  0  0  0
  1 13  1  0  0  0  0
  1 14  1  0  0  0  0
  1 15  1  0  0  0  0
  3 16  1  0  0  0  0
  3 17  1  0  0  0  0
  3 18  1  0  0  0  0
  6 19  1  0  0  0  0
  6 20  1  0  0  0  0
  7 21  1  0  0  0  0
  7 22  1  0  0  0  0
  9 23  1  0  0  0  0
  9 24  1  0  0  0  0
  9 25  1  0  0  0  0
 10 26  1  0  0  0  0
 10 27  1  0  0  0  0
M  END
$$$$
