C10H18O
APtclcactv05262212113D 0   0.00000     0.00000
 
 29 29  0  0  1  0  0  0  0  0999 V2000
    2.8142    1.5401    0.0151 C   0  0  0  0  0  0  0  0  0  0  0  0
    2.0903    0.2232   -0.2724 C   0  0  0  0  0  0  0  0  0  0  0  0
    2.8645   -0.9336    0.3627 C   0  0  0  0  0  0  0  0  0  0  0  0
    0.6796    0.2773    0.3172 C   0  0  1  0  0  0  0  0  0  0  0  0
    0.7389    0.4300    1.3949 H   0  0  0  0  0  0  0  0  0  0  0  0
   -0.1022    1.4289   -0.3235 C   0  0  0  0  0  0  0  0  0  0  0  0
   -1.5517    1.3921    0.1637 C   0  0  0  0  0  0  0  0  0  0  0  0
   -2.2239    0.1009   -0.3058 C   0  0  2  0  0  0  0  0  0  0  0  0
   -2.1519    0.0273   -1.3909 H   0  0  0  0  0  0  0  0  0  0  0  0
   -3.6967    0.1126    0.1083 C   0  0  0  0  0  0  0  0  0  0  0  0
   -1.5219   -1.1008    0.3356 C   0  0  0  0  0  0  0  0  0  0  0  0
   -0.0426   -1.0197    0.0268 C   0  0  0  0  0  0  0  0  0  0  0  0
    0.5441   -1.9638   -0.4452 O   0  0  0  0  0  0  0  0  0  0  0  0
    3.8192    1.5015   -0.4050 H   0  0  0  0  0  0  0  0  0  0  0  0
    2.2626    2.3642   -0.4374 H   0  0  0  0  0  0  0  0  0  0  0  0
    2.8764    1.6928    1.0926 H   0  0  0  0  0  0  0  0  0  0  0  0
    2.0282    0.0705   -1.3499 H   0  0  0  0  0  0  0  0  0  0  0  0
    2.3489   -1.8718    0.1579 H   0  0  0  0  0  0  0  0  0  0  0  0
    3.8696   -0.9722   -0.0574 H   0  0  0  0  0  0  0  0  0  0  0  0
    2.9267   -0.7809    1.4402 H   0  0  0  0  0  0  0  0  0  0  0  0
    0.3523    2.3785   -0.0408 H   0  0  0  0  0  0  0  0  0  0  0  0
   -0.0804    1.3239   -1.4082 H   0  0  0  0  0  0  0  0  0  0  0  0
   -1.5691    1.4344    1.2527 H   0  0  0  0  0  0  0  0  0  0  0  0
   -2.0913    2.2489   -0.2398 H   0  0  0  0  0  0  0  0  0  0  0  0
   -4.1954    0.9681   -0.3472 H   0  0  0  0  0  0  0  0  0  0  0  0
   -4.1756   -0.8077   -0.2263 H   0  0  0  0  0  0  0  0  0  0  0  0
   -3.7685    0.1857    1.1935 H   0  0  0  0  0  0  0  0  0  0  0  0
   -1.6694   -1.0774    1.4153 H   0  0  0  0  0  0  0  0  0  0  0  0
   -1.9314   -2.0247   -0.0728 H   0  0  0  0  0  0  0  0  0  0  0  0
  1  2  1  0  0  0  0
  2  3  1  0  0  0  0
  2  4  1  0  0  0  0
  4  5  1  0  0  0  0
  4  6  1  0  0  0  0
  6  7  1  0  0  0  0
  7  8  1  0  0  0  0
  8  9  1  0  0  0  0
  8 10  1  0  0  0  0
  8 11  1  0  0  0  0
 11 12  1  0  0  0  0
  4 12  1  0  0  0  0
 12 13  2  0  0  0  0
  1 14  1  0  0  0  0
  1 15  1  0  0  0  0
  1 16  1  0  0  0  0
  2 17  1  0  0  0  0
  3 18  1  0  0  0  0
  3 19  1  0  0  0  0
  3 20  1  0  0  0  0
  6 21  1  0  0  0  0
  6 22  1  0  0  0  0
  7 23  1  0  0  0  0
  7 24  1  0  0  0  0
 10 25  1  0  0  0  0
 10 26  1  0  0  0  0
 10 27  1  0  0  0  0
 11 28  1  0  0  0  0
 11 29  1  0  0  0  0
M  END
$$$$
