C10H16O
APtclcactv05262212113D 0   0.00000     0.00000
 
 27 28  0  0  1  0  0  0  0  0999 V2000
    0.4896    1.9748    0.9717 C   0  0  0  0  0  0  0  0  0  0  0  0
    0.2474    0.5287    0.5346 C   0  0  1  0  0  0  0  0  0  0  0  0
   -0.1675   -0.4626    1.6643 C   0  0  0  0  0  0  0  0  0  0  0  0
   -0.8307   -1.6448    0.9207 C   0  0  0  0  0  0  0  0  0  0  0  0
   -0.7434   -1.2549   -0.5870 C   0  0  1  0  0  0  0  0  0  0  0  0
   -1.4243   -1.7789   -1.2577 H   0  0  0  0  0  0  0  0  0  0  0  0
   -0.9166    0.3029   -0.4933 C   0  0  0  0  0  0  0  0  0  0  0  0
   -2.2779    0.6966    0.0836 C   0  0  0  0  0  0  0  0  0  0  0  0
   -0.6449    0.9935   -1.8312 C   0  0  0  0  0  0  0  0  0  0  0  0
    0.7748   -1.3658   -0.9265 C   0  0  0  0  0  0  0  0  0  0  0  0
    1.4218   -0.1621   -0.1728 C   0  0  0  0  0  0  0  0  0  0  0  0
    2.5885    0.1492   -0.1552 O   0  0  0  0  0  0  0  0  0  0  0  0
    1.3035    2.0040    1.6962 H   0  0  0  0  0  0  0  0  0  0  0  0
    0.7546    2.5775    0.1030 H   0  0  0  0  0  0  0  0  0  0  0  0
   -0.4169    2.3733    1.4275 H   0  0  0  0  0  0  0  0  0  0  0  0
    0.7107   -0.8031    2.2129 H   0  0  0  0  0  0  0  0  0  0  0  0
   -0.8803    0.0089    2.3410 H   0  0  0  0  0  0  0  0  0  0  0  0
   -0.2820   -2.5679    1.1076 H   0  0  0  0  0  0  0  0  0  0  0  0
   -1.8715   -1.7511    1.2267 H   0  0  0  0  0  0  0  0  0  0  0  0
   -2.3916    0.2611    1.0763 H   0  0  0  0  0  0  0  0  0  0  0  0
   -2.3426    1.7824    0.1536 H   0  0  0  0  0  0  0  0  0  0  0  0
   -3.0695    0.3268   -0.5683 H   0  0  0  0  0  0  0  0  0  0  0  0
   -1.3579    0.6380   -2.5750 H   0  0  0  0  0  0  0  0  0  0  0  0
   -0.7516    2.0717   -1.7118 H   0  0  0  0  0  0  0  0  0  0  0  0
    0.3685    0.7629   -2.1599 H   0  0  0  0  0  0  0  0  0  0  0  0
    1.1758   -2.3131   -0.5659 H   0  0  0  0  0  0  0  0  0  0  0  0
    0.9310   -1.2714   -2.0011 H   0  0  0  0  0  0  0  0  0  0  0  0
  1  2  1  0  0  0  0
  2  3  1  0  0  0  0
  3  4  1  0  0  0  0
  4  5  1  0  0  0  0
  5  6  1  0  0  0  0
  5  7  1  0  0  0  0
  2  7  1  0  0  0  0
  7  8  1  0  0  0  0
  7  9  1  0  0  0  0
  5 10  1  0  0  0  0
 10 11  1  0  0  0  0
  2 11  1  0  0  0  0
 11 12  2  0  0  0  0
  1 13  1  0  0  0  0
  1 14  1  0  0  0  0
  1 15  1  0  0  0  0
  3 16  1  0  0  0  0
  3 17  1  0  0  0  0
  4 18  1  0  0  0  0
  4 19  1  0  0  0  0
  8 20  1  0  0  0  0
  8 21  1  0  0  0  0
  8 22  1  0  0  0  0
  9 23  1  0  0  0  0
  9 24  1  0  0  0  0
  9 25  1  0  0  0  0
 10 26  1  0  0  0  0
 10 27  1  0  0  0  0
M  END
$$$$
