C10H14O
APtclcactv05262212103D 0   0.00000     0.00000
 
 25 25  0  0  1  0  0  0  0  0999 V2000
    3.3866    0.6698   -0.0698 C   0  0  0  0  0  0  0  0  0  0  0  0
    1.8929    0.4802   -0.0079 C   0  0  0  0  0  0  0  0  0  0  0  0
    1.0931    1.5383   -0.0591 C   0  0  0  0  0  0  0  0  0  0  0  0
   -0.4022    1.4412    0.0056 C   0  0  0  0  0  0  0  0  0  0  0  0
   -0.8829    0.0497   -0.4034 C   0  0  1  0  0  0  0  0  0  0  0  0
   -0.6766   -0.1110   -1.4616 H   0  0  0  0  0  0  0  0  0  0  0  0
   -0.1379   -1.0023    0.4307 C   0  0  0  0  0  0  0  0  0  0  0  0
    1.3361   -0.8723    0.1022 C   0  0  0  0  0  0  0  0  0  0  0  0
    2.0322   -1.8532   -0.0568 O   0  0  0  0  0  0  0  0  0  0  0  0
   -2.3650   -0.0648   -0.1556 C   0  0  0  0  0  0  0  0  0  0  0  0
   -3.1778   -0.3191   -1.1510 C   0  0  0  0  0  0  0  0  0  0  0  0
   -2.9120    0.1132    1.2373 C   0  0  0  0  0  0  0  0  0  0  0  0
    3.7797    0.7900    0.9397 H   0  0  0  0  0  0  0  0  0  0  0  0
    3.8445   -0.2023   -0.5366 H   0  0  0  0  0  0  0  0  0  0  0  0
    3.6160    1.5588   -0.6573 H   0  0  0  0  0  0  0  0  0  0  0  0
    1.5408    2.5167   -0.1515 H   0  0  0  0  0  0  0  0  0  0  0  0
   -0.7300    1.6474    1.0245 H   0  0  0  0  0  0  0  0  0  0  0  0
   -0.8378    2.1814   -0.6656 H   0  0  0  0  0  0  0  0  0  0  0  0
   -0.3024   -0.8183    1.4924 H   0  0  0  0  0  0  0  0  0  0  0  0
   -0.4884   -2.0004    0.1677 H   0  0  0  0  0  0  0  0  0  0  0  0
   -2.7857   -0.4467   -2.1492 H   0  0  0  0  0  0  0  0  0  0  0  0
   -4.2399   -0.4011   -0.9734 H   0  0  0  0  0  0  0  0  0  0  0  0
   -3.1503    1.1639    1.4025 H   0  0  0  0  0  0  0  0  0  0  0  0
   -3.8149   -0.4865    1.3524 H   0  0  0  0  0  0  0  0  0  0  0  0
   -2.1666   -0.2090    1.9643 H   0  0  0  0  0  0  0  0  0  0  0  0
  1  2  1  0  0  0  0
  2  3  2  0  0  0  0
  3  4  1  0  0  0  0
  4  5  1  0  0  0  0
  5  6  1  0  0  0  0
  5  7  1  0  0  0  0
  7  8  1  0  0  0  0
  2  8  1  0  0  0  0
  8  9  2  0  0  0  0
  5 10  1  0  0  0  0
 10 11  2  0  0  0  0
 10 12  1  0  0  0  0
  1 13  1  0  0  0  0
  1 14  1  0  0  0  0
  1 15  1  0  0  0  0
  3 16  1  0  0  0  0
  4 17  1  0  0  0  0
  4 18  1  0  0  0  0
  7 19  1  0  0  0  0
  7 20  1  0  0  0  0
 11 21  1  0  0  0  0
 11 22  1  0  0  0  0
 12 23  1  0  0  0  0
 12 24  1  0  0  0  0
 12 25  1  0  0  0  0
M  END
$$$$
