C10H20O
APtclcactv05262212103D 0   0.00000     0.00000
 
 31 31  0  0  1  0  0  0  0  0999 V2000
    2.9305   -1.0691    0.8160 C   0  0  0  0  0  0  0  0  0  0  0  0
    2.1586    0.0443    0.1050 C   0  0  0  0  0  0  0  0  0  0  0  0
    2.3439   -0.0924   -1.4076 C   0  0  0  0  0  0  0  0  0  0  0  0
    0.6718   -0.0660    0.4487 C   0  0  2  0  0  0  0  0  0  0  0  0
    0.5472   -0.0514    1.5314 H   0  0  0  0  0  0  0  0  0  0  0  0
    0.1148   -1.3764   -0.1112 C   0  0  0  0  0  0  0  0  0  0  0  0
   -1.3720   -1.4868    0.2325 C   0  0  0  0  0  0  0  0  0  0  0  0
   -2.1268   -0.3072   -0.3837 C   0  0  1  0  0  0  0  0  0  0  0  0
   -2.0021   -0.3218   -1.4664 H   0  0  0  0  0  0  0  0  0  0  0  0
   -3.6136   -0.4175   -0.0400 C   0  0  0  0  0  0  0  0  0  0  0  0
   -1.5698    1.0032    0.1762 C   0  0  0  0  0  0  0  0  0  0  0  0
   -0.0830    1.1136   -0.1675 C   0  0  1  0  0  0  0  0  0  0  0  0
    0.0417    1.0990   -1.2503 H   0  0  0  0  0  0  0  0  0  0  0  0
    0.4373    2.3375    0.3554 O   0  0  0  0  0  0  0  0  0  0  0  0
    3.9994   -0.9309    0.6538 H   0  0  0  0  0  0  0  0  0  0  0  0
    2.7175   -1.0337    1.8844 H   0  0  0  0  0  0  0  0  0  0  0  0
    2.6243   -2.0358    0.4163 H   0  0  0  0  0  0  0  0  0  0  0  0
    2.5360    1.0135    0.4311 H   0  0  0  0  0  0  0  0  0  0  0  0
    1.7941    0.7008   -1.9142 H   0  0  0  0  0  0  0  0  0  0  0  0
    3.4032   -0.0138   -1.6525 H   0  0  0  0  0  0  0  0  0  0  0  0
    1.9666   -1.0616   -1.7338 H   0  0  0  0  0  0  0  0  0  0  0  0
    0.2395   -1.3910   -1.1940 H   0  0  0  0  0  0  0  0  0  0  0  0
    0.6526   -2.2168    0.3278 H   0  0  0  0  0  0  0  0  0  0  0  0
   -1.7688   -2.4203   -0.1663 H   0  0  0  0  0  0  0  0  0  0  0  0
   -1.4966   -1.4722    1.3153 H   0  0  0  0  0  0  0  0  0  0  0  0
   -3.7382   -0.4029    1.0428 H   0  0  0  0  0  0  0  0  0  0  0  0
   -4.1513    0.4228   -0.4790 H   0  0  0  0  0  0  0  0  0  0  0  0
   -4.0104   -1.3511   -0.4388 H   0  0  0  0  0  0  0  0  0  0  0  0
   -2.1075    1.8436   -0.2628 H   0  0  0  0  0  0  0  0  0  0  0  0
   -1.6944    1.0178    1.2589 H   0  0  0  0  0  0  0  0  0  0  0  0
    0.0045    3.1292    0.0076 H   0  0  0  0  0  0  0  0  0  0  0  0
  1  2  1  0  0  0  0
  2  3  1  0  0  0  0
  2  4  1  0  0  0  0
  4  5  1  0  0  0  0
  4  6  1  0  0  0  0
  6  7  1  0  0  0  0
  7  8  1  0  0  0  0
  8  9  1  0  0  0  0
  8 10  1  0  0  0  0
  8 11  1  0  0  0  0
 11 12  1  0  0  0  0
 12 13  1  0  0  0  0
  4 12  1  0  0  0  0
 12 14  1  0  0  0  0
  1 15  1  0  0  0  0
  1 16  1  0  0  0  0
  1 17  1  0  0  0  0
  2 18  1  0  0  0  0
  3 19  1  0  0  0  0
  3 20  1  0  0  0  0
  3 21  1  0  0  0  0
  6 22  1  0  0  0  0
  6 23  1  0  0  0  0
  7 24  1  0  0  0  0
  7 25  1  0  0  0  0
 10 26  1  0  0  0  0
 10 27  1  0  0  0  0
 10 28  1  0  0  0  0
 11 29  1  0  0  0  0
 11 30  1  0  0  0  0
 14 31  1  0  0  0  0
M  END
$$$$
