C10H16O
APtclcactv05262212113D 0   0.00000     0.00000
 
 27 28  0  0  1  0  0  0  0  0999 V2000
    2.0046   -0.2452    1.1362 C   0  0  0  0  0  0  0  0  0  0  0  0
    1.1788    0.0789   -0.1104 C   0  0  0  0  0  0  0  0  0  0  0  0
    2.0493    0.7764   -1.1577 C   0  0  0  0  0  0  0  0  0  0  0  0
    0.5559   -1.2227   -0.7022 C   0  0  1  0  0  0  0  0  0  0  0  0
    1.2117   -1.8256   -1.3304 H   0  0  0  0  0  0  0  0  0  0  0  0
   -0.0684   -1.9463    0.5305 C   0  0  0  0  0  0  0  0  0  0  0  0
   -1.2650   -1.0553    0.9362 C   0  0  0  0  0  0  0  0  0  0  0  0
   -1.2517    0.1137   -0.0956 C   0  0  2  0  0  0  0  0  0  0  0  0
   -2.5651    0.8832   -0.2489 C   0  0  0  0  0  0  0  0  0  0  0  0
   -0.7228   -0.6299   -1.3943 C   0  0  0  0  0  0  0  0  0  0  0  0
   -0.0117    0.9531    0.2557 C   0  0  0  0  0  0  0  0  0  0  0  0
    0.0107    2.0588    0.7407 O   0  0  0  0  0  0  0  0  0  0  0  0
    2.5222    0.6530    1.4728 H   0  0  0  0  0  0  0  0  0  0  0  0
    1.3443   -0.6019    1.9267 H   0  0  0  0  0  0  0  0  0  0  0  0
    2.7354   -1.0177    0.8971 H   0  0  0  0  0  0  0  0  0  0  0  0
    2.8677    0.1172   -1.4473 H   0  0  0  0  0  0  0  0  0  0  0  0
    1.4451    1.0118   -2.0338 H   0  0  0  0  0  0  0  0  0  0  0  0
    2.4551    1.6969   -0.7382 H   0  0  0  0  0  0  0  0  0  0  0  0
   -0.4125   -2.9426    0.2530 H   0  0  0  0  0  0  0  0  0  0  0  0
    0.6550   -2.0054    1.3437 H   0  0  0  0  0  0  0  0  0  0  0  0
   -2.1974   -1.6151    0.8643 H   0  0  0  0  0  0  0  0  0  0  0  0
   -1.1278   -0.6716    1.9472 H   0  0  0  0  0  0  0  0  0  0  0  0
   -2.8316    1.3407    0.7039 H   0  0  0  0  0  0  0  0  0  0  0  0
   -2.4451    1.6601   -1.0040 H   0  0  0  0  0  0  0  0  0  0  0  0
   -3.3545    0.1971   -0.5558 H   0  0  0  0  0  0  0  0  0  0  0  0
   -0.4862    0.0673   -2.1980 H   0  0  0  0  0  0  0  0  0  0  0  0
   -1.4055   -1.4126   -1.7250 H   0  0  0  0  0  0  0  0  0  0  0  0
  1  2  1  0  0  0  0
  2  3  1  0  0  0  0
  2  4  1  0  0  0  0
  4  5  1  0  0  0  0
  4  6  1  0  0  0  0
  6  7  1  0  0  0  0
  7  8  1  0  0  0  0
  8  9  1  0  0  0  0
  8 10  1  0  0  0  0
  4 10  1  0  0  0  0
  8 11  1  0  0  0  0
  2 11  1  0  0  0  0
 11 12  2  0  0  0  0
  1 13  1  0  0  0  0
  1 14  1  0  0  0  0
  1 15  1  0  0  0  0
  3 16  1  0  0  0  0
  3 17  1  0  0  0  0
  3 18  1  0  0  0  0
  6 19  1  0  0  0  0
  6 20  1  0  0  0  0
  7 21  1  0  0  0  0
  7 22  1  0  0  0  0
  9 23  1  0  0  0  0
  9 24  1  0  0  0  0
  9 25  1  0  0  0  0
 10 26  1  0  0  0  0
 10 27  1  0  0  0  0
M  END
$$$$
