C10H12O2
APtclcactv05262212113D 0   0.00000     0.00000
 
 24 24  0  0  1  0  0  0  0  0999 V2000
    2.9075   -1.7160    0.1594 C   0  0  0  0  0  0  0  0  0  0  0  0
    1.4417   -1.5302   -0.2380 C   0  0  0  0  0  0  0  0  0  0  0  0
    0.8575   -0.3323    0.5134 C   0  0  2  0  0  0  0  0  0  0  0  0
    1.0033   -0.4693    1.5849 H   0  0  0  0  0  0  0  0  0  0  0  0
   -0.6160   -0.2232    0.2168 C   0  0  0  0  0  0  0  0  0  0  0  0
   -1.5358   -0.3022    1.2457 C   0  0  0  0  0  0  0  0  0  0  0  0
   -2.8874   -0.2022    0.9736 C   0  0  0  0  0  0  0  0  0  0  0  0
   -3.3192   -0.0228   -0.3273 C   0  0  0  0  0  0  0  0  0  0  0  0
   -2.3993    0.0571   -1.3560 C   0  0  0  0  0  0  0  0  0  0  0  0
   -1.0475   -0.0386   -1.0834 C   0  0  0  0  0  0  0  0  0  0  0  0
    1.5541    0.9279    0.0688 C   0  0  0  0  0  0  0  0  0  0  0  0
    2.4281    0.8736   -0.7637 O   0  0  0  0  0  0  0  0  0  0  0  0
    1.2035    2.1108    0.5977 O   0  0  0  0  0  0  0  0  0  0  0  0
    3.4698   -0.8178   -0.0956 H   0  0  0  0  0  0  0  0  0  0  0  0
    2.9732   -1.8934    1.2329 H   0  0  0  0  0  0  0  0  0  0  0  0
    3.3237   -2.5694   -0.3759 H   0  0  0  0  0  0  0  0  0  0  0  0
    1.3760   -1.3528   -1.3115 H   0  0  0  0  0  0  0  0  0  0  0  0
    0.8794   -2.4284    0.0169 H   0  0  0  0  0  0  0  0  0  0  0  0
   -1.1985   -0.4424    2.2620 H   0  0  0  0  0  0  0  0  0  0  0  0
   -3.6061   -0.2646    1.7773 H   0  0  0  0  0  0  0  0  0  0  0  0
   -4.3752    0.0546   -0.5400 H   0  0  0  0  0  0  0  0  0  0  0  0
   -2.7366    0.1969   -2.3724 H   0  0  0  0  0  0  0  0  0  0  0  0
   -0.3288    0.0239   -1.8871 H   0  0  0  0  0  0  0  0  0  0  0  0
    1.6786    2.8913    0.2811 H   0  0  0  0  0  0  0  0  0  0  0  0
  1  2  1  0  0  0  0
  2  3  1  0  0  0  0
  3  4  1  0  0  0  0
  3  5  1  0  0  0  0
  5  6  2  0  0  0  0
  6  7  1  0  0  0  0
  7  8  2  0  0  0  0
  8  9  1  0  0  0  0
  9 10  2  0  0  0  0
  5 10  1  0  0  0  0
  3 11  1  0  0  0  0
 11 12  2  0  0  0  0
 11 13  1  0  0  0  0
  1 14  1  0  0  0  0
  1 15  1  0  0  0  0
  1 16  1  0  0  0  0
  2 17  1  0  0  0  0
  2 18  1  0  0  0  0
  6 19  1  0  0  0  0
  7 20  1  0  0  0  0
  8 21  1  0  0  0  0
  9 22  1  0  0  0  0
 10 23  1  0  0  0  0
 13 24  1  0  0  0  0
M  END
$$$$
