C10H18O
APtclcactv05262212103D 0   0.00000     0.00000
 
 29 28  0  0  1  0  0  0  0  0999 V2000
    1.4151    1.3945   -0.0537 C   0  0  0  0  0  0  0  0  0  0  0  0
    1.4218   -0.0945   -0.4053 C   0  0  2  0  0  0  0  0  0  0  0  0
    1.5322   -0.2128   -1.4832 H   0  0  0  0  0  0  0  0  0  0  0  0
    0.1054   -0.7309    0.0454 C   0  0  0  0  0  0  0  0  0  0  0  0
   -1.0517   -0.1309   -0.7558 C   0  0  0  0  0  0  0  0  0  0  0  0
   -2.3483   -0.7577   -0.3119 C   0  0  0  0  0  0  0  0  0  0  0  0
   -3.3367   -0.0001    0.0945 C   0  0  0  0  0  0  0  0  0  0  0  0
   -3.1772    1.4982    0.1180 C   0  0  0  0  0  0  0  0  0  0  0  0
   -4.6333   -0.6269    0.5384 C   0  0  0  0  0  0  0  0  0  0  0  0
    2.5898   -0.7812    0.3053 C   0  0  0  0  0  0  0  0  0  0  0  0
    3.8909   -0.2397   -0.2284 C   0  0  0  0  0  0  0  0  0  0  0  0
    4.7077    0.2256    0.5297 O   0  0  0  0  0  0  0  0  0  0  0  0
    2.3529    1.8478   -0.3748 H   0  0  0  0  0  0  0  0  0  0  0  0
    0.5830    1.8837   -0.5600 H   0  0  0  0  0  0  0  0  0  0  0  0
    1.3047    1.5127    1.0243 H   0  0  0  0  0  0  0  0  0  0  0  0
    0.1453   -1.8069   -0.1241 H   0  0  0  0  0  0  0  0  0  0  0  0
   -0.0478   -0.5357    1.1068 H   0  0  0  0  0  0  0  0  0  0  0  0
   -1.0916    0.9451   -0.5864 H   0  0  0  0  0  0  0  0  0  0  0  0
   -0.8985   -0.3262   -1.8172 H   0  0  0  0  0  0  0  0  0  0  0  0
   -2.4626   -1.8315   -0.3287 H   0  0  0  0  0  0  0  0  0  0  0  0
   -2.9673    1.8572   -0.8896 H   0  0  0  0  0  0  0  0  0  0  0  0
   -4.0969    1.9559    0.4825 H   0  0  0  0  0  0  0  0  0  0  0  0
   -2.3520    1.7655    0.7781 H   0  0  0  0  0  0  0  0  0  0  0  0
   -4.5906   -0.8309    1.6083 H   0  0  0  0  0  0  0  0  0  0  0  0
   -5.4568    0.0565    0.3314 H   0  0  0  0  0  0  0  0  0  0  0  0
   -4.7902   -1.5596   -0.0034 H   0  0  0  0  0  0  0  0  0  0  0  0
    2.5279   -0.5878    1.3763 H   0  0  0  0  0  0  0  0  0  0  0  0
    2.5429   -1.8555    0.1268 H   0  0  0  0  0  0  0  0  0  0  0  0
    4.0930   -0.2678   -1.2890 H   0  0  0  0  0  0  0  0  0  0  0  0
  1  2  1  0  0  0  0
  2  3  1  0  0  0  0
  2  4  1  0  0  0  0
  4  5  1  0  0  0  0
  5  6  1  0  0  0  0
  6  7  2  0  0  0  0
  7  8  1  0  0  0  0
  7  9  1  0  0  0  0
  2 10  1  0  0  0  0
 10 11  1  0  0  0  0
 11 12  2  0  0  0  0
  1 13  1  0  0  0  0
  1 14  1  0  0  0  0
  1 15  1  0  0  0  0
  4 16  1  0  0  0  0
  4 17  1  0  0  0  0
  5 18  1  0  0  0  0
  5 19  1  0  0  0  0
  6 20  1  0  0  0  0
  8 21  1  0  0  0  0
  8 22  1  0  0  0  0
  8 23  1  0  0  0  0
  9 24  1  0  0  0  0
  9 25  1  0  0  0  0
  9 26  1  0  0  0  0
 10 27  1  0  0  0  0
 10 28  1  0  0  0  0
 11 29  1  0  0  0  0
M  END
$$$$
