C10H16
APtclcactv05262212113D 0   0.00000     0.00000
 
 26 26  0  0  1  0  0  0  0  0999 V2000
    3.5984    0.0798    0.0433 C   0  0  0  0  0  0  0  0  0  0  0  0
    2.0921    0.0357    0.0325 C   0  0  0  0  0  0  0  0  0  0  0  0
    1.4519    1.1605    0.0487 C   0  0  0  0  0  0  0  0  0  0  0  0
   -0.0442    1.2768    0.0302 C   0  0  0  0  0  0  0  0  0  0  0  0
   -0.6816   -0.0602    0.4145 C   0  0  2  0  0  0  0  0  0  0  0  0
   -0.5099   -0.2573    1.4727 H   0  0  0  0  0  0  0  0  0  0  0  0
   -0.0336   -1.1664   -0.4277 C   0  0  0  0  0  0  0  0  0  0  0  0
    1.4278   -1.3095   -0.0025 C   0  0  0  0  0  0  0  0  0  0  0  0
   -2.1630   -0.0121    0.1421 C   0  0  0  0  0  0  0  0  0  0  0  0
   -3.0151   -0.1879    1.1215 C   0  0  0  0  0  0  0  0  0  0  0  0
   -2.6641    0.2382   -1.2569 C   0  0  0  0  0  0  0  0  0  0  0  0
    3.9314    1.1174    0.0645 H   0  0  0  0  0  0  0  0  0  0  0  0
    3.9708   -0.4393    0.9265 H   0  0  0  0  0  0  0  0  0  0  0  0
    3.9826   -0.4069   -0.8531 H   0  0  0  0  0  0  0  0  0  0  0  0
    2.0303    2.0721    0.0778 H   0  0  0  0  0  0  0  0  0  0  0  0
   -0.3559    2.0429    0.7402 H   0  0  0  0  0  0  0  0  0  0  0  0
   -0.3723    1.5592   -0.9701 H   0  0  0  0  0  0  0  0  0  0  0  0
   -0.5582   -2.1075   -0.2626 H   0  0  0  0  0  0  0  0  0  0  0  0
   -0.0798   -0.8980   -1.4831 H   0  0  0  0  0  0  0  0  0  0  0  0
    1.9481   -1.9558   -0.7094 H   0  0  0  0  0  0  0  0  0  0  0  0
    1.4730   -1.7544    0.9915 H   0  0  0  0  0  0  0  0  0  0  0  0
   -4.0767   -0.1534    0.9262 H   0  0  0  0  0  0  0  0  0  0  0  0
   -2.6559   -0.3672    2.1241 H   0  0  0  0  0  0  0  0  0  0  0  0
   -1.8157    0.3592   -1.9305 H   0  0  0  0  0  0  0  0  0  0  0  0
   -3.2691   -0.6079   -1.5829 H   0  0  0  0  0  0  0  0  0  0  0  0
   -3.2699    1.1442   -1.2692 H   0  0  0  0  0  0  0  0  0  0  0  0
  1  2  1  0  0  0  0
  2  3  2  0  0  0  0
  3  4  1  0  0  0  0
  4  5  1  0  0  0  0
  5  6  1  0  0  0  0
  5  7  1  0  0  0  0
  7  8  1  0  0  0  0
  2  8  1  0  0  0  0
  5  9  1  0  0  0  0
  9 10  2  0  0  0  0
  9 11  1  0  0  0  0
  1 12  1  0  0  0  0
  1 13  1  0  0  0  0
  1 14  1  0  0  0  0
  3 15  1  0  0  0  0
  4 16  1  0  0  0  0
  4 17  1  0  0  0  0
  7 18  1  0  0  0  0
  7 19  1  0  0  0  0
  8 20  1  0  0  0  0
  8 21  1  0  0  0  0
 10 22  1  0  0  0  0
 10 23  1  0  0  0  0
 11 24  1  0  0  0  0
 11 25  1  0  0  0  0
 11 26  1  0  0  0  0
M  END
$$$$
