C10H20O
APtclcactv05262212103D 0   0.00000     0.00000
 
 31 30  0  0  1  0  0  0  0  0999 V2000
   -1.5800    1.7531    0.4235 C   0  0  0  0  0  0  0  0  0  0  0  0
   -1.3120    0.3426   -0.1053 C   0  0  1  0  0  0  0  0  0  0  0  0
   -1.1977    0.3764   -1.1888 H   0  0  0  0  0  0  0  0  0  0  0  0
   -0.0299   -0.2037    0.5260 C   0  0  0  0  0  0  0  0  0  0  0  0
    1.1635    0.6352    0.0644 C   0  0  0  0  0  0  0  0  0  0  0  0
    2.4263    0.0971    0.6863 C   0  0  0  0  0  0  0  0  0  0  0  0
    3.4533   -0.2014   -0.0702 C   0  0  0  0  0  0  0  0  0  0  0  0
    3.4377    0.1512   -1.5353 C   0  0  0  0  0  0  0  0  0  0  0  0
    4.6503   -0.8974    0.5245 C   0  0  0  0  0  0  0  0  0  0  0  0
   -2.4867   -0.5690    0.2553 C   0  0  0  0  0  0  0  0  0  0  0  0
   -3.7438   -0.0945   -0.4763 C   0  0  0  0  0  0  0  0  0  0  0  0
   -4.8409   -0.9460   -0.1394 O   0  0  0  0  0  0  0  0  0  0  0  0
   -0.7432    2.4026    0.1666 H   0  0  0  0  0  0  0  0  0  0  0  0
   -2.4934    2.1423   -0.0263 H   0  0  0  0  0  0  0  0  0  0  0  0
   -1.6944    1.7193    1.5070 H   0  0  0  0  0  0  0  0  0  0  0  0
   -0.1102   -0.1546    1.6120 H   0  0  0  0  0  0  0  0  0  0  0  0
    0.1136   -1.2396    0.2187 H   0  0  0  0  0  0  0  0  0  0  0  0
    1.2437    0.5861   -1.0215 H   0  0  0  0  0  0  0  0  0  0  0  0
    1.0200    1.6711    0.3717 H   0  0  0  0  0  0  0  0  0  0  0  0
    2.4847   -0.0424    1.7556 H   0  0  0  0  0  0  0  0  0  0  0  0
    2.5432    0.7324   -1.7596 H   0  0  0  0  0  0  0  0  0  0  0  0
    4.3231    0.7391   -1.7770 H   0  0  0  0  0  0  0  0  0  0  0  0
    3.4353   -0.7629   -2.1290 H   0  0  0  0  0  0  0  0  0  0  0  0
    4.5157   -1.9767    0.4531 H   0  0  0  0  0  0  0  0  0  0  0  0
    5.5480   -0.6063   -0.0209 H   0  0  0  0  0  0  0  0  0  0  0  0
    4.7530   -0.6126    1.5717 H   0  0  0  0  0  0  0  0  0  0  0  0
   -2.2573   -1.5921   -0.0425 H   0  0  0  0  0  0  0  0  0  0  0  0
   -2.6572   -0.5334    1.3313 H   0  0  0  0  0  0  0  0  0  0  0  0
   -3.9732    0.9286   -0.1785 H   0  0  0  0  0  0  0  0  0  0  0  0
   -3.5733   -0.1301   -1.5523 H   0  0  0  0  0  0  0  0  0  0  0  0
   -5.6730   -0.7036   -0.5684 H   0  0  0  0  0  0  0  0  0  0  0  0
  1  2  1  0  0  0  0
  2  3  1  0  0  0  0
  2  4  1  0  0  0  0
  4  5  1  0  0  0  0
  5  6  1  0  0  0  0
  6  7  2  0  0  0  0
  7  8  1  0  0  0  0
  7  9  1  0  0  0  0
  2 10  1  0  0  0  0
 10 11  1  0  0  0  0
 11 12  1  0  0  0  0
  1 13  1  0  0  0  0
  1 14  1  0  0  0  0
  1 15  1  0  0  0  0
  4 16  1  0  0  0  0
  4 17  1  0  0  0  0
  5 18  1  0  0  0  0
  5 19  1  0  0  0  0
  6 20  1  0  0  0  0
  8 21  1  0  0  0  0
  8 22  1  0  0  0  0
  8 23  1  0  0  0  0
  9 24  1  0  0  0  0
  9 25  1  0  0  0  0
  9 26  1  0  0  0  0
 10 27  1  0  0  0  0
 10 28  1  0  0  0  0
 11 29  1  0  0  0  0
 11 30  1  0  0  0  0
 12 31  1  0  0  0  0
M  END
$$$$
