C9H20O
APtclcactv05262212103D 0   0.00000     0.00000
 
 30 29  0  0  0  0  0  0  0  0999 V2000
    5.6957   -0.3224   -0.0000 C   0  0  0  0  0  0  0  0  0  0  0  0
    4.4295    0.5365    0.0000 C   0  0  0  0  0  0  0  0  0  0  0  0
    3.1977   -0.3709   -0.0000 C   0  0  0  0  0  0  0  0  0  0  0  0
    1.9315    0.4880    0.0000 C   0  0  0  0  0  0  0  0  0  0  0  0
    0.6997   -0.4195    0.0000 C   0  0  0  0  0  0  0  0  0  0  0  0
   -0.5665    0.4394   -0.0000 C   0  0  0  0  0  0  0  0  0  0  0  0
   -1.7983   -0.4680    0.0000 C   0  0  0  0  0  0  0  0  0  0  0  0
   -3.0645    0.3909   -0.0000 C   0  0  0  0  0  0  0  0  0  0  0  0
   -4.2963   -0.5165    0.0000 C   0  0  0  0  0  0  0  0  0  0  0  0
   -5.4789    0.2857   -0.0000 O   0  0  0  0  0  0  0  0  0  0  0  0
    6.5733    0.3241    0.0000 H   0  0  0  0  0  0  0  0  0  0  0  0
    5.7079   -0.9516    0.8900 H   0  0  0  0  0  0  0  0  0  0  0  0
    5.7079   -0.9516   -0.8900 H   0  0  0  0  0  0  0  0  0  0  0  0
    4.4173    1.1657    0.8900 H   0  0  0  0  0  0  0  0  0  0  0  0
    4.4173    1.1657   -0.8900 H   0  0  0  0  0  0  0  0  0  0  0  0
    3.2099   -1.0001   -0.8900 H   0  0  0  0  0  0  0  0  0  0  0  0
    3.2099   -1.0001    0.8900 H   0  0  0  0  0  0  0  0  0  0  0  0
    1.9193    1.1172    0.8900 H   0  0  0  0  0  0  0  0  0  0  0  0
    1.9193    1.1172   -0.8900 H   0  0  0  0  0  0  0  0  0  0  0  0
    0.7119   -1.0487   -0.8900 H   0  0  0  0  0  0  0  0  0  0  0  0
    0.7119   -1.0487    0.8900 H   0  0  0  0  0  0  0  0  0  0  0  0
   -0.5787    1.0686    0.8900 H   0  0  0  0  0  0  0  0  0  0  0  0
   -0.5787    1.0686   -0.8900 H   0  0  0  0  0  0  0  0  0  0  0  0
   -1.7861   -1.0972   -0.8900 H   0  0  0  0  0  0  0  0  0  0  0  0
   -1.7861   -1.0972    0.8900 H   0  0  0  0  0  0  0  0  0  0  0  0
   -3.0767    1.0201    0.8900 H   0  0  0  0  0  0  0  0  0  0  0  0
   -3.0767    1.0201   -0.8900 H   0  0  0  0  0  0  0  0  0  0  0  0
   -4.2841   -1.1457   -0.8900 H   0  0  0  0  0  0  0  0  0  0  0  0
   -4.2841   -1.1457    0.8900 H   0  0  0  0  0  0  0  0  0  0  0  0
   -6.3003   -0.2246    0.0000 H   0  0  0  0  0  0  0  0  0  0  0  0
  1  2  1  0  0  0  0
  2  3  1  0  0  0  0
  3  4  1  0  0  0  0
  4  5  1  0  0  0  0
  5  6  1  0  0  0  0
  6  7  1  0  0  0  0
  7  8  1  0  0  0  0
  8  9  1  0  0  0  0
  9 10  1  0  0  0  0
  1 11  1  0  0  0  0
  1 12  1  0  0  0  0
  1 13  1  0  0  0  0
  2 14  1  0  0  0  0
  2 15  1  0  0  0  0
  3 16  1  0  0  0  0
  3 17  1  0  0  0  0
  4 18  1  0  0  0  0
  4 19  1  0  0  0  0
  5 20  1  0  0  0  0
  5 21  1  0  0  0  0
  6 22  1  0  0  0  0
  6 23  1  0  0  0  0
  7 24  1  0  0  0  0
  7 25  1  0  0  0  0
  8 26  1  0  0  0  0
  8 27  1  0  0  0  0
  9 28  1  0  0  0  0
  9 29  1  0  0  0  0
 10 30  1  0  0  0  0
M  END
$$$$
