C8H18O
APtclcactv05262212103D 0   0.00000     0.00000
 
 27 26  0  0  0  0  0  0  0  0999 V2000
    5.0634   -0.3710   -0.0000 C   0  0  0  0  0  0  0  0  0  0  0  0
    3.8097    0.5060    0.0000 C   0  0  0  0  0  0  0  0  0  0  0  0
    2.5650   -0.3838   -0.0000 C   0  0  0  0  0  0  0  0  0  0  0  0
    1.3113    0.4932    0.0000 C   0  0  0  0  0  0  0  0  0  0  0  0
    0.0666   -0.3965    0.0000 C   0  0  0  0  0  0  0  0  0  0  0  0
   -1.1872    0.4804   -0.0000 C   0  0  0  0  0  0  0  0  0  0  0  0
   -2.4319   -0.4093    0.0000 C   0  0  0  0  0  0  0  0  0  0  0  0
   -3.6856    0.4676   -0.0000 C   0  0  0  0  0  0  0  0  0  0  0  0
   -4.8482   -0.3634    0.0000 O   0  0  0  0  0  0  0  0  0  0  0  0
    5.0667   -1.0003    0.8900 H   0  0  0  0  0  0  0  0  0  0  0  0
    5.0667   -1.0003   -0.8900 H   0  0  0  0  0  0  0  0  0  0  0  0
    5.9502    0.2629    0.0000 H   0  0  0  0  0  0  0  0  0  0  0  0
    3.8065    1.1353    0.8900 H   0  0  0  0  0  0  0  0  0  0  0  0
    3.8065    1.1353   -0.8900 H   0  0  0  0  0  0  0  0  0  0  0  0
    2.5682   -1.0131   -0.8900 H   0  0  0  0  0  0  0  0  0  0  0  0
    2.5682   -1.0131    0.8900 H   0  0  0  0  0  0  0  0  0  0  0  0
    1.3080    1.1225    0.8900 H   0  0  0  0  0  0  0  0  0  0  0  0
    1.3080    1.1225   -0.8900 H   0  0  0  0  0  0  0  0  0  0  0  0
    0.0698   -1.0258   -0.8900 H   0  0  0  0  0  0  0  0  0  0  0  0
    0.0698   -1.0258    0.8900 H   0  0  0  0  0  0  0  0  0  0  0  0
   -1.1904    1.1097    0.8900 H   0  0  0  0  0  0  0  0  0  0  0  0
   -1.1904    1.1097   -0.8900 H   0  0  0  0  0  0  0  0  0  0  0  0
   -2.4287   -1.0386   -0.8900 H   0  0  0  0  0  0  0  0  0  0  0  0
   -2.4287   -1.0386    0.8900 H   0  0  0  0  0  0  0  0  0  0  0  0
   -3.6889    1.0969    0.8900 H   0  0  0  0  0  0  0  0  0  0  0  0
   -3.6889    1.0969   -0.8900 H   0  0  0  0  0  0  0  0  0  0  0  0
   -5.6819    0.1265   -0.0000 H   0  0  0  0  0  0  0  0  0  0  0  0
  1  2  1  0  0  0  0
  2  3  1  0  0  0  0
  3  4  1  0  0  0  0
  4  5  1  0  0  0  0
  5  6  1  0  0  0  0
  6  7  1  0  0  0  0
  7  8  1  0  0  0  0
  8  9  1  0  0  0  0
  1 10  1  0  0  0  0
  1 11  1  0  0  0  0
  1 12  1  0  0  0  0
  2 13  1  0  0  0  0
  2 14  1  0  0  0  0
  3 15  1  0  0  0  0
  3 16  1  0  0  0  0
  4 17  1  0  0  0  0
  4 18  1  0  0  0  0
  5 19  1  0  0  0  0
  5 20  1  0  0  0  0
  6 21  1  0  0  0  0
  6 22  1  0  0  0  0
  7 23  1  0  0  0  0
  7 24  1  0  0  0  0
  8 25  1  0  0  0  0
  8 26  1  0  0  0  0
  9 27  1  0  0  0  0
M  END
$$$$
