C8H18S
APtclcactv05262212103D 0   0.00000     0.00000
 
 27 26  0  0  0  0  0  0  0  0999 V2000
    5.6551   -0.4719   -0.0000 C   0  0  0  0  0  0  0  0  0  0  0  0
    4.4313    0.4464    0.0000 C   0  0  0  0  0  0  0  0  0  0  0  0
    3.1576   -0.4014   -0.0000 C   0  0  0  0  0  0  0  0  0  0  0  0
    1.9338    0.5168    0.0000 C   0  0  0  0  0  0  0  0  0  0  0  0
    0.6602   -0.3310   -0.0000 C   0  0  0  0  0  0  0  0  0  0  0  0
   -0.5637    0.5872   -0.0000 C   0  0  0  0  0  0  0  0  0  0  0  0
   -1.8373   -0.2605    0.0000 C   0  0  0  0  0  0  0  0  0  0  0  0
   -3.0612    0.6577   -0.0000 C   0  0  0  0  0  0  0  0  0  0  0  0
   -4.5712   -0.3475    0.0000 S   0  0  0  0  0  0  0  0  0  0  0  0
    5.6374   -1.1009    0.8900 H   0  0  0  0  0  0  0  0  0  0  0  0
    5.6374   -1.1009   -0.8900 H   0  0  0  0  0  0  0  0  0  0  0  0
    6.5625    0.1321    0.0000 H   0  0  0  0  0  0  0  0  0  0  0  0
    4.4490    1.0754    0.8900 H   0  0  0  0  0  0  0  0  0  0  0  0
    4.4490    1.0754   -0.8900 H   0  0  0  0  0  0  0  0  0  0  0  0
    3.1399   -1.0305   -0.8900 H   0  0  0  0  0  0  0  0  0  0  0  0
    3.1399   -1.0305    0.8900 H   0  0  0  0  0  0  0  0  0  0  0  0
    1.9516    1.1459    0.8900 H   0  0  0  0  0  0  0  0  0  0  0  0
    1.9516    1.1459   -0.8900 H   0  0  0  0  0  0  0  0  0  0  0  0
    0.6424   -0.9600   -0.8900 H   0  0  0  0  0  0  0  0  0  0  0  0
    0.6424   -0.9600    0.8900 H   0  0  0  0  0  0  0  0  0  0  0  0
   -0.5459    1.2163    0.8900 H   0  0  0  0  0  0  0  0  0  0  0  0
   -0.5459    1.2163   -0.8900 H   0  0  0  0  0  0  0  0  0  0  0  0
   -1.8551   -0.8896   -0.8900 H   0  0  0  0  0  0  0  0  0  0  0  0
   -1.8551   -0.8896    0.8900 H   0  0  0  0  0  0  0  0  0  0  0  0
   -3.0434    1.2867    0.8900 H   0  0  0  0  0  0  0  0  0  0  0  0
   -3.0434    1.2867   -0.8900 H   0  0  0  0  0  0  0  0  0  0  0  0
   -5.5493    0.5758   -0.0000 H   0  0  0  0  0  0  0  0  0  0  0  0
  1  2  1  0  0  0  0
  2  3  1  0  0  0  0
  3  4  1  0  0  0  0
  4  5  1  0  0  0  0
  5  6  1  0  0  0  0
  6  7  1  0  0  0  0
  7  8  1  0  0  0  0
  8  9  1  0  0  0  0
  1 10  1  0  0  0  0
  1 11  1  0  0  0  0
  1 12  1  0  0  0  0
  2 13  1  0  0  0  0
  2 14  1  0  0  0  0
  3 15  1  0  0  0  0
  3 16  1  0  0  0  0
  4 17  1  0  0  0  0
  4 18  1  0  0  0  0
  5 19  1  0  0  0  0
  5 20  1  0  0  0  0
  6 21  1  0  0  0  0
  6 22  1  0  0  0  0
  7 23  1  0  0  0  0
  7 24  1  0  0  0  0
  8 25  1  0  0  0  0
  8 26  1  0  0  0  0
  9 27  1  0  0  0  0
M  END
$$$$
