C10H18O
APtclcactv05262212103D 0   0.00000     0.00000
 
 29 30  0  0  0  0  0  0  0  0999 V2000
    2.4188   -1.3172   -0.0259 C   0  0  0  0  0  0  0  0  0  0  0  0
    1.2056   -0.3852   -0.0093 C   0  0  0  0  0  0  0  0  0  0  0  0
    1.2334    0.4699    1.2609 C   0  0  0  0  0  0  0  0  0  0  0  0
    0.0033    1.3829    1.2760 C   0  0  0  0  0  0  0  0  0  0  0  0
   -0.8349    1.1036    0.0231 C   0  0  0  0  0  0  0  0  0  0  0  0
    0.0022    1.4357   -1.2177 C   0  0  0  0  0  0  0  0  0  0  0  0
    1.2455    0.5301   -1.2363 C   0  0  0  0  0  0  0  0  0  0  0  0
   -1.1946   -0.3859   -0.0090 C   0  0  0  0  0  0  0  0  0  0  0  0
   -2.0112   -0.7409    1.2352 C   0  0  0  0  0  0  0  0  0  0  0  0
   -2.0184   -0.6853   -1.2630 C   0  0  0  0  0  0  0  0  0  0  0  0
    0.0054   -1.1617   -0.0293 O   0  0  0  0  0  0  0  0  0  0  0  0
    2.3902   -1.9666    0.8490 H   0  0  0  0  0  0  0  0  0  0  0  0
    2.3976   -1.9251   -0.9304 H   0  0  0  0  0  0  0  0  0  0  0  0
    3.3330   -0.7239   -0.0083 H   0  0  0  0  0  0  0  0  0  0  0  0
    1.2173   -0.1781    2.1371 H   0  0  0  0  0  0  0  0  0  0  0  0
    2.1384    1.0773    1.2717 H   0  0  0  0  0  0  0  0  0  0  0  0
   -0.5916    1.1796    2.1664 H   0  0  0  0  0  0  0  0  0  0  0  0
    0.3221    2.4253    1.2773 H   0  0  0  0  0  0  0  0  0  0  0  0
   -1.7383    1.7133    0.0365 H   0  0  0  0  0  0  0  0  0  0  0  0
   -0.5910    1.2627   -2.1156 H   0  0  0  0  0  0  0  0  0  0  0  0
    0.3146    2.4792   -1.1791 H   0  0  0  0  0  0  0  0  0  0  0  0
    2.1449    1.1454   -1.2113 H   0  0  0  0  0  0  0  0  0  0  0  0
    1.2417   -0.0756   -2.1425 H   0  0  0  0  0  0  0  0  0  0  0  0
   -2.9250   -0.1470    1.2518 H   0  0  0  0  0  0  0  0  0  0  0  0
   -2.2668   -1.8003    1.2119 H   0  0  0  0  0  0  0  0  0  0  0  0
   -1.4236   -0.5285    2.1283 H   0  0  0  0  0  0  0  0  0  0  0  0
   -1.4358   -0.4333   -2.1492 H   0  0  0  0  0  0  0  0  0  0  0  0
   -2.2740   -1.7447   -1.2855 H   0  0  0  0  0  0  0  0  0  0  0  0
   -2.9322   -0.0913   -1.2479 H   0  0  0  0  0  0  0  0  0  0  0  0
  1  2  1  0  0  0  0
  2  3  1  0  0  0  0
  3  4  1  0  0  0  0
  4  5  1  0  0  0  0
  5  6  1  0  0  0  0
  6  7  1  0  0  0  0
  2  7  1  0  0  0  0
  5  8  1  0  0  0  0
  8  9  1  0  0  0  0
  8 10  1  0  0  0  0
  8 11  1  0  0  0  0
  2 11  1  0  0  0  0
  1 12  1  0  0  0  0
  1 13  1  0  0  0  0
  1 14  1  0  0  0  0
  3 15  1  0  0  0  0
  3 16  1  0  0  0  0
  4 17  1  0  0  0  0
  4 18  1  0  0  0  0
  5 19  1  0  0  0  0
  6 20  1  0  0  0  0
  6 21  1  0  0  0  0
  7 22  1  0  0  0  0
  7 23  1  0  0  0  0
  9 24  1  0  0  0  0
  9 25  1  0  0  0  0
  9 26  1  0  0  0  0
 10 27  1  0  0  0  0
 10 28  1  0  0  0  0
 10 29  1  0  0  0  0
M  END
$$$$
