C8H6O2
APtclcactv05262212113D 0   0.00000     0.00000
 
 16 17  0  0  0  0  0  0  0  0999 V2000
   -3.2106   -0.0846   -0.0012 O   0  0  0  0  0  0  0  0  0  0  0  0
   -2.0046   -0.0107   -0.0011 C   0  0  0  0  0  0  0  0  0  0  0  0
   -1.1767    1.2588   -0.0001 C   0  0  0  0  0  0  0  0  0  0  0  0
    0.2459    0.7455   -0.0003 C   0  0  0  0  0  0  0  0  0  0  0  0
    1.4701    1.3742    0.0006 C   0  0  0  0  0  0  0  0  0  0  0  0
    2.6317    0.6217    0.0006 C   0  0  0  0  0  0  0  0  0  0  0  0
    2.5543   -0.7590   -0.0004 C   0  0  0  0  0  0  0  0  0  0  0  0
    1.3277   -1.3898   -0.0018 C   0  0  0  0  0  0  0  0  0  0  0  0
    0.1537   -0.6393   -0.0013 C   0  0  0  0  0  0  0  0  0  0  0  0
   -1.1422   -1.0340    0.0041 O   0  0  0  0  0  0  0  0  0  0  0  0
   -1.3734    1.8470   -0.8965 H   0  0  0  0  0  0  0  0  0  0  0  0
   -1.3736    1.8457    0.8971 H   0  0  0  0  0  0  0  0  0  0  0  0
    1.5244    2.4528    0.0011 H   0  0  0  0  0  0  0  0  0  0  0  0
    3.5946    1.1108    0.0010 H   0  0  0  0  0  0  0  0  0  0  0  0
    3.4601   -1.3472   -0.0004 H   0  0  0  0  0  0  0  0  0  0  0  0
    1.2770   -2.4686   -0.0029 H   0  0  0  0  0  0  0  0  0  0  0  0
  1  2  2  0  0  0  0
  2  3  1  0  0  0  0
  3  4  1  0  0  0  0
  4  5  1  0  0  0  0
  5  6  2  0  0  0  0
  6  7  1  0  0  0  0
  7  8  2  0  0  0  0
  8  9  1  0  0  0  0
  4  9  2  0  0  0  0
  9 10  1  0  0  0  0
  2 10  1  0  0  0  0
  3 11  1  0  0  0  0
  3 12  1  0  0  0  0
  5 13  1  0  0  0  0
  6 14  1  0  0  0  0
  7 15  1  0  0  0  0
  8 16  1  0  0  0  0
M  END
$$$$
