C5H7NOS
APtclcactv05262212113D 0   0.00000     0.00000
 
 15 15  0  0  0  0  0  0  0  0999 V2000
    3.5636   -0.0877   -0.0002 C   0  0  0  0  0  0  0  0  0  0  0  0
    2.1167    0.4097   -0.0022 C   0  0  0  0  0  0  0  0  0  0  0  0
    1.2283   -0.7096    0.0007 O   0  0  0  0  0  0  0  0  0  0  0  0
   -0.1003   -0.4407   -0.0006 C   0  0  0  0  0  0  0  0  0  0  0  0
   -1.0379   -1.3341    0.0016 N   0  0  0  0  0  0  0  0  0  0  0  0
   -2.2832   -0.8941   -0.0002 C   0  0  0  0  0  0  0  0  0  0  0  0
   -2.4018    0.4344   -0.0040 C   0  0  0  0  0  0  0  0  0  0  0  0
   -0.7820    1.1272    0.0020 S   0  0  0  0  0  0  0  0  0  0  0  0
    4.2413    0.7661   -0.0023 H   0  0  0  0  0  0  0  0  0  0  0  0
    3.7398   -0.6892    0.8916 H   0  0  0  0  0  0  0  0  0  0  0  0
    3.7405   -0.6942   -0.8884 H   0  0  0  0  0  0  0  0  0  0  0  0
    1.9398    1.0163    0.8860 H   0  0  0  0  0  0  0  0  0  0  0  0
    1.9405    1.0112   -0.8939 H   0  0  0  0  0  0  0  0  0  0  0  0
   -3.1364   -1.5563    0.0014 H   0  0  0  0  0  0  0  0  0  0  0  0
   -3.3288    0.9886   -0.0060 H   0  0  0  0  0  0  0  0  0  0  0  0
  1  2  1  0  0  0  0
  2  3  1  0  0  0  0
  3  4  1  0  0  0  0
  4  5  2  0  0  0  0
  5  6  1  0  0  0  0
  6  7  2  0  0  0  0
  7  8  1  0  0  0  0
  4  8  1  0  0  0  0
  1  9  1  0  0  0  0
  1 10  1  0  0  0  0
  1 11  1  0  0  0  0
  2 12  1  0  0  0  0
  2 13  1  0  0  0  0
  6 14  1  0  0  0  0
  7 15  1  0  0  0  0
M  END
$$$$
