C9H14N2O
APtclcactv05262212113D 0   0.00000     0.00000
 
 26 26  0  0  0  0  0  0  0  0999 V2000
    1.9033    2.6381    0.2784 C   0  0  0  0  0  0  0  0  0  0  0  0
    0.8156    1.8003   -0.1180 O   0  0  0  0  0  0  0  0  0  0  0  0
    1.0313    0.4609   -0.0995 C   0  0  0  0  0  0  0  0  0  0  0  0
    2.2095   -0.0169    0.2745 N   0  0  0  0  0  0  0  0  0  0  0  0
    2.4165   -1.3226    0.2920 C   0  0  0  0  0  0  0  0  0  0  0  0
    1.4058   -2.1894   -0.0794 C   0  0  0  0  0  0  0  0  0  0  0  0
    0.2294   -1.7161   -0.4536 N   0  0  0  0  0  0  0  0  0  0  0  0
    0.0146   -0.4137   -0.4676 C   0  0  0  0  0  0  0  0  0  0  0  0
   -1.3267    0.1251   -0.8937 C   0  0  0  0  0  0  0  0  0  0  0  0
   -2.2391    0.2466    0.3285 C   0  0  0  0  0  0  0  0  0  0  0  0
   -3.5558    0.9091   -0.0819 C   0  0  0  0  0  0  0  0  0  0  0  0
   -2.5234   -1.1466    0.8932 C   0  0  0  0  0  0  0  0  0  0  0  0
    2.1892    2.4016    1.3033 H   0  0  0  0  0  0  0  0  0  0  0  0
    2.7523    2.4690   -0.3839 H   0  0  0  0  0  0  0  0  0  0  0  0
    1.5979    3.6827    0.2182 H   0  0  0  0  0  0  0  0  0  0  0  0
    3.3766   -1.7124    0.5964 H   0  0  0  0  0  0  0  0  0  0  0  0
    1.5776   -3.2555   -0.0643 H   0  0  0  0  0  0  0  0  0  0  0  0
   -1.1959    1.1070   -1.3485 H   0  0  0  0  0  0  0  0  0  0  0  0
   -1.7776   -0.5536   -1.6177 H   0  0  0  0  0  0  0  0  0  0  0  0
   -1.7485    0.8538    1.0892 H   0  0  0  0  0  0  0  0  0  0  0  0
   -4.0464    0.3019   -0.8426 H   0  0  0  0  0  0  0  0  0  0  0  0
   -4.2058    0.9957    0.7888 H   0  0  0  0  0  0  0  0  0  0  0  0
   -3.3532    1.9017   -0.4842 H   0  0  0  0  0  0  0  0  0  0  0  0
   -3.0140   -1.7538    0.1324 H   0  0  0  0  0  0  0  0  0  0  0  0
   -1.5854   -1.6186    1.1855 H   0  0  0  0  0  0  0  0  0  0  0  0
   -3.1734   -1.0601    1.7639 H   0  0  0  0  0  0  0  0  0  0  0  0
  1  2  1  0  0  0  0
  2  3  1  0  0  0  0
  3  4  1  0  0  0  0
  4  5  2  0  0  0  0
  5  6  1  0  0  0  0
  6  7  2  0  0  0  0
  7  8  1  0  0  0  0
  3  8  2  0  0  0  0
  8  9  1  0  0  0  0
  9 10  1  0  0  0  0
 10 11  1  0  0  0  0
 10 12  1  0  0  0  0
  1 13  1  0  0  0  0
  1 14  1  0  0  0  0
  1 15  1  0  0  0  0
  5 16  1  0  0  0  0
  6 17  1  0  0  0  0
  9 18  1  0  0  0  0
  9 19  1  0  0  0  0
 10 20  1  0  0  0  0
 11 21  1  0  0  0  0
 11 22  1  0  0  0  0
 11 23  1  0  0  0  0
 12 24  1  0  0  0  0
 12 25  1  0  0  0  0
 12 26  1  0  0  0  0
M  END
$$$$
