C5H6N2
APtclcactv05262212103D 0   0.00000     0.00000
 
 13 13  0  0  0  0  0  0  0  0999 V2000
    2.4040   -0.0005    0.0008 C   0  0  0  0  0  0  0  0  0  0  0  0
    0.8971   -0.0146    0.0010 C   0  0  0  0  0  0  0  0  0  0  0  0
    0.1939    1.1773   -0.0003 C   0  0  0  0  0  0  0  0  0  0  0  0
   -1.1273    1.1648   -0.0006 N   0  0  0  0  0  0  0  0  0  0  0  0
   -1.7772    0.0142    0.0004 C   0  0  0  0  0  0  0  0  0  0  0  0
   -1.0743   -1.1774    0.0018 C   0  0  0  0  0  0  0  0  0  0  0  0
    0.2472   -1.1650   -0.0030 N   0  0  0  0  0  0  0  0  0  0  0  0
    2.7675    0.0042    1.0284 H   0  0  0  0  0  0  0  0  0  0  0  0
    2.7756   -0.8876   -0.5120 H   0  0  0  0  0  0  0  0  0  0  0  0
    2.7589    0.8923   -0.5142 H   0  0  0  0  0  0  0  0  0  0  0  0
    0.7251    2.1177   -0.0009 H   0  0  0  0  0  0  0  0  0  0  0  0
   -2.8572    0.0040    0.0006 H   0  0  0  0  0  0  0  0  0  0  0  0
   -1.6055   -2.1177    0.0027 H   0  0  0  0  0  0  0  0  0  0  0  0
  1  2  1  0  0  0  0
  2  3  1  0  0  0  0
  3  4  2  0  0  0  0
  4  5  1  0  0  0  0
  5  6  2  0  0  0  0
  6  7  1  0  0  0  0
  2  7  2  0  0  0  0
  1  8  1  0  0  0  0
  1  9  1  0  0  0  0
  1 10  1  0  0  0  0
  3 11  1  0  0  0  0
  5 12  1  0  0  0  0
  6 13  1  0  0  0  0
M  END
$$$$
