C9H18O
APtclcactv05262212103D 0   0.00000     0.00000
 
 28 27  0  0  0  0  0  0  0  0999 V2000
    5.3873   -0.2368   -0.0000 C   0  0  0  0  0  0  0  0  0  0  0  0
    4.0834    0.5637    0.0000 C   0  0  0  0  0  0  0  0  0  0  0  0
    2.8941   -0.3988   -0.0000 C   0  0  0  0  0  0  0  0  0  0  0  0
    1.5902    0.4017    0.0000 C   0  0  0  0  0  0  0  0  0  0  0  0
    0.4008   -0.5608   -0.0000 C   0  0  0  0  0  0  0  0  0  0  0  0
   -0.9030    0.2398    0.0000 C   0  0  0  0  0  0  0  0  0  0  0  0
   -2.0924   -0.7227    0.0000 C   0  0  0  0  0  0  0  0  0  0  0  0
   -3.3766    0.0658   -0.0000 C   0  0  0  0  0  0  0  0  0  0  0  0
   -4.7016   -0.6522    0.0000 C   0  0  0  0  0  0  0  0  0  0  0  0
   -3.3440    1.2729   -0.0000 O   0  0  0  0  0  0  0  0  0  0  0  0
    6.2346    0.4489    0.0000 H   0  0  0  0  0  0  0  0  0  0  0  0
    5.4281   -0.8648    0.8900 H   0  0  0  0  0  0  0  0  0  0  0  0
    5.4281   -0.8648   -0.8900 H   0  0  0  0  0  0  0  0  0  0  0  0
    4.0426    1.1917    0.8900 H   0  0  0  0  0  0  0  0  0  0  0  0
    4.0426    1.1917   -0.8900 H   0  0  0  0  0  0  0  0  0  0  0  0
    2.9349   -1.0268   -0.8900 H   0  0  0  0  0  0  0  0  0  0  0  0
    2.9349   -1.0268    0.8900 H   0  0  0  0  0  0  0  0  0  0  0  0
    1.5494    1.0297    0.8900 H   0  0  0  0  0  0  0  0  0  0  0  0
    1.5494    1.0297   -0.8900 H   0  0  0  0  0  0  0  0  0  0  0  0
    0.4416   -1.1887   -0.8900 H   0  0  0  0  0  0  0  0  0  0  0  0
    0.4416   -1.1887    0.8900 H   0  0  0  0  0  0  0  0  0  0  0  0
   -0.9438    0.8677    0.8900 H   0  0  0  0  0  0  0  0  0  0  0  0
   -0.9438    0.8677   -0.8900 H   0  0  0  0  0  0  0  0  0  0  0  0
   -2.0516   -1.3507   -0.8900 H   0  0  0  0  0  0  0  0  0  0  0  0
   -2.0516   -1.3507    0.8900 H   0  0  0  0  0  0  0  0  0  0  0  0
   -4.7763   -1.2771    0.8900 H   0  0  0  0  0  0  0  0  0  0  0  0
   -5.5107    0.0782    0.0000 H   0  0  0  0  0  0  0  0  0  0  0  0
   -4.7763   -1.2771   -0.8900 H   0  0  0  0  0  0  0  0  0  0  0  0
  1  2  1  0  0  0  0
  2  3  1  0  0  0  0
  3  4  1  0  0  0  0
  4  5  1  0  0  0  0
  5  6  1  0  0  0  0
  6  7  1  0  0  0  0
  7  8  1  0  0  0  0
  8  9  1  0  0  0  0
  8 10  2  0  0  0  0
  1 11  1  0  0  0  0
  1 12  1  0  0  0  0
  1 13  1  0  0  0  0
  2 14  1  0  0  0  0
  2 15  1  0  0  0  0
  3 16  1  0  0  0  0
  3 17  1  0  0  0  0
  4 18  1  0  0  0  0
  4 19  1  0  0  0  0
  5 20  1  0  0  0  0
  5 21  1  0  0  0  0
  6 22  1  0  0  0  0
  6 23  1  0  0  0  0
  7 24  1  0  0  0  0
  7 25  1  0  0  0  0
  9 26  1  0  0  0  0
  9 27  1  0  0  0  0
  9 28  1  0  0  0  0
M  END
$$$$
