C10H15N
APtclcactv05262212103D 0   0.00000     0.00000
 
 26 26  0  0  0  0  0  0  0  0999 V2000
    5.1187    0.0671   -0.1481 C   0  0  0  0  0  0  0  0  0  0  0  0
    3.6997    0.4980   -0.5245 C   0  0  0  0  0  0  0  0  0  0  0  0
    2.6876   -0.3346    0.2650 C   0  0  0  0  0  0  0  0  0  0  0  0
    1.2686    0.0963   -0.1114 C   0  0  0  0  0  0  0  0  0  0  0  0
    0.2564   -0.7363    0.6782 C   0  0  0  0  0  0  0  0  0  0  0  0
   -1.1412   -0.3119    0.3074 C   0  0  0  0  0  0  0  0  0  0  0  0
   -2.0444   -1.2555   -0.1448 C   0  0  0  0  0  0  0  0  0  0  0  0
   -3.3277   -0.8548   -0.4828 C   0  0  0  0  0  0  0  0  0  0  0  0
   -3.6562    0.4862   -0.3527 C   0  0  0  0  0  0  0  0  0  0  0  0
   -2.7002    1.3722    0.1063 C   0  0  0  0  0  0  0  0  0  0  0  0
   -1.4901    0.9544    0.4234 N   0  0  0  0  0  0  0  0  0  0  0  0
    5.8397    0.6602   -0.7106 H   0  0  0  0  0  0  0  0  0  0  0  0
    5.2744    0.2225    0.9195 H   0  0  0  0  0  0  0  0  0  0  0  0
    5.2528   -0.9883   -0.3850 H   0  0  0  0  0  0  0  0  0  0  0  0
    3.5656    1.5534   -0.2876 H   0  0  0  0  0  0  0  0  0  0  0  0
    3.5439    0.3426   -1.5921 H   0  0  0  0  0  0  0  0  0  0  0  0
    2.8217   -1.3900    0.0281 H   0  0  0  0  0  0  0  0  0  0  0  0
    2.8433   -0.1792    1.3326 H   0  0  0  0  0  0  0  0  0  0  0  0
    1.1344    1.1517    0.1256 H   0  0  0  0  0  0  0  0  0  0  0  0
    1.1128   -0.0591   -1.1789 H   0  0  0  0  0  0  0  0  0  0  0  0
    0.3906   -1.7917    0.4413 H   0  0  0  0  0  0  0  0  0  0  0  0
    0.4122   -0.5809    1.7458 H   0  0  0  0  0  0  0  0  0  0  0  0
   -1.7538   -2.2919   -0.2341 H   0  0  0  0  0  0  0  0  0  0  0  0
   -4.0543   -1.5699   -0.8393 H   0  0  0  0  0  0  0  0  0  0  0  0
   -4.6465    0.8338   -0.6072 H   0  0  0  0  0  0  0  0  0  0  0  0
   -2.9481    2.4181    0.2104 H   0  0  0  0  0  0  0  0  0  0  0  0
  1  2  1  0  0  0  0
  2  3  1  0  0  0  0
  3  4  1  0  0  0  0
  4  5  1  0  0  0  0
  5  6  1  0  0  0  0
  6  7  1  0  0  0  0
  7  8  2  0  0  0  0
  8  9  1  0  0  0  0
  9 10  2  0  0  0  0
 10 11  1  0  0  0  0
  6 11  2  0  0  0  0
  1 12  1  0  0  0  0
  1 13  1  0  0  0  0
  1 14  1  0  0  0  0
  2 15  1  0  0  0  0
  2 16  1  0  0  0  0
  3 17  1  0  0  0  0
  3 18  1  0  0  0  0
  4 19  1  0  0  0  0
  4 20  1  0  0  0  0
  5 21  1  0  0  0  0
  5 22  1  0  0  0  0
  7 23  1  0  0  0  0
  8 24  1  0  0  0  0
  9 25  1  0  0  0  0
 10 26  1  0  0  0  0
M  END
$$$$
