C8H10S
APtclcactv05262212113D 0   0.00000     0.00000
 
 19 19  0  0  0  0  0  0  0  0999 V2000
    3.4730   -0.0000    0.0790 S   0  0  0  0  0  0  0  0  0  0  0  0
    1.7162    0.0008    0.5311 C   0  0  0  0  0  0  0  0  0  0  0  0
    0.8628   -0.0013   -0.7387 C   0  0  0  0  0  0  0  0  0  0  0  0
   -0.5966   -0.0006   -0.3631 C   0  0  0  0  0  0  0  0  0  0  0  0
   -1.2660    1.1969   -0.1929 C   0  0  0  0  0  0  0  0  0  0  0  0
   -2.6047    1.1975    0.1517 C   0  0  0  0  0  0  0  0  0  0  0  0
   -3.2742    0.0007    0.3256 C   0  0  0  0  0  0  0  0  0  0  0  0
   -2.6051   -1.1968    0.1545 C   0  0  0  0  0  0  0  0  0  0  0  0
   -1.2675   -1.1974   -0.1943 C   0  0  0  0  0  0  0  0  0  0  0  0
    4.0926    0.0020    1.2728 H   0  0  0  0  0  0  0  0  0  0  0  0
    1.4924   -0.8881    1.1209 H   0  0  0  0  0  0  0  0  0  0  0  0
    1.4925    0.8918    1.1178 H   0  0  0  0  0  0  0  0  0  0  0  0
    1.0866    0.8877   -1.3284 H   0  0  0  0  0  0  0  0  0  0  0  0
    1.0866   -0.8923   -1.3254 H   0  0  0  0  0  0  0  0  0  0  0  0
   -0.7429    2.1319   -0.3288 H   0  0  0  0  0  0  0  0  0  0  0  0
   -3.1274    2.1331    0.2853 H   0  0  0  0  0  0  0  0  0  0  0  0
   -4.3199    0.0012    0.5955 H   0  0  0  0  0  0  0  0  0  0  0  0
   -3.1281   -2.1318    0.2907 H   0  0  0  0  0  0  0  0  0  0  0  0
   -0.7447   -2.1330   -0.3280 H   0  0  0  0  0  0  0  0  0  0  0  0
  1  2  1  0  0  0  0
  2  3  1  0  0  0  0
  3  4  1  0  0  0  0
  4  5  1  0  0  0  0
  5  6  2  0  0  0  0
  6  7  1  0  0  0  0
  7  8  2  0  0  0  0
  8  9  1  0  0  0  0
  4  9  2  0  0  0  0
  1 10  1  0  0  0  0
  2 11  1  0  0  0  0
  2 12  1  0  0  0  0
  3 13  1  0  0  0  0
  3 14  1  0  0  0  0
  5 15  1  0  0  0  0
  6 16  1  0  0  0  0
  7 17  1  0  0  0  0
  8 18  1  0  0  0  0
  9 19  1  0  0  0  0
M  END
$$$$
