C3H6S
APtclcactv05262212103D 0   0.00000     0.00000
 
 10  9  0  0  0  0  0  0  0  0999 V2000
    1.4407   -0.2503    0.0384 S   0  0  0  0  0  0  0  0  0  0  0  0
   -0.0475    0.7865    0.0038 C   0  0  0  0  0  0  0  0  0  0  0  0
   -1.2175   -0.0302   -0.4812 C   0  0  0  0  0  0  0  0  0  0  0  0
   -2.2235   -0.2744    0.3216 C   0  0  0  0  0  0  0  0  0  0  0  0
    2.3879    0.5949    0.4827 H   0  0  0  0  0  0  0  0  0  0  0  0
   -0.2548    1.1581    1.0073 H   0  0  0  0  0  0  0  0  0  0  0  0
    0.1119    1.6286   -0.6697 H   0  0  0  0  0  0  0  0  0  0  0  0
   -1.2266   -0.4141   -1.4906 H   0  0  0  0  0  0  0  0  0  0  0  0
   -3.0619   -0.8596   -0.0260 H   0  0  0  0  0  0  0  0  0  0  0  0
   -2.2143    0.1095    1.3310 H   0  0  0  0  0  0  0  0  0  0  0  0
  1  2  1  0  0  0  0
  2  3  1  0  0  0  0
  3  4  2  0  0  0  0
  1  5  1  0  0  0  0
  2  6  1  0  0  0  0
  2  7  1  0  0  0  0
  3  8  1  0  0  0  0
  4  9  1  0  0  0  0
  4 10  1  0  0  0  0
M  END
$$$$
