C11H22O
APtclcactv05262212103D 0   0.00000     0.00000
 
 34 33  0  0  0  0  0  0  0  0999 V2000
    6.6717   -0.2462   -0.0000 C   0  0  0  0  0  0  0  0  0  0  0  0
    5.3820    0.5770    0.0000 C   0  0  0  0  0  0  0  0  0  0  0  0
    4.1760   -0.3645   -0.0000 C   0  0  0  0  0  0  0  0  0  0  0  0
    2.8863    0.4587    0.0000 C   0  0  0  0  0  0  0  0  0  0  0  0
    1.6803   -0.4828   -0.0000 C   0  0  0  0  0  0  0  0  0  0  0  0
    0.3907    0.3404    0.0000 C   0  0  0  0  0  0  0  0  0  0  0  0
   -0.8153   -0.6011   -0.0000 C   0  0  0  0  0  0  0  0  0  0  0  0
   -2.1050    0.2221    0.0000 C   0  0  0  0  0  0  0  0  0  0  0  0
   -3.3110   -0.7195    0.0000 C   0  0  0  0  0  0  0  0  0  0  0  0
   -4.5813    0.0914   -0.0000 C   0  0  0  0  0  0  0  0  0  0  0  0
   -5.9186   -0.6033    0.0000 C   0  0  0  0  0  0  0  0  0  0  0  0
   -4.5276    1.2978   -0.0000 O   0  0  0  0  0  0  0  0  0  0  0  0
    7.5309    0.4246    0.0000 H   0  0  0  0  0  0  0  0  0  0  0  0
    6.7015   -0.8748    0.8900 H   0  0  0  0  0  0  0  0  0  0  0  0
    6.7015   -0.8748   -0.8900 H   0  0  0  0  0  0  0  0  0  0  0  0
    5.3522    1.2056    0.8900 H   0  0  0  0  0  0  0  0  0  0  0  0
    5.3522    1.2056   -0.8900 H   0  0  0  0  0  0  0  0  0  0  0  0
    4.2058   -0.9931   -0.8900 H   0  0  0  0  0  0  0  0  0  0  0  0
    4.2058   -0.9931    0.8900 H   0  0  0  0  0  0  0  0  0  0  0  0
    2.8565    1.0873    0.8900 H   0  0  0  0  0  0  0  0  0  0  0  0
    2.8565    1.0873   -0.8900 H   0  0  0  0  0  0  0  0  0  0  0  0
    1.7101   -1.1114   -0.8900 H   0  0  0  0  0  0  0  0  0  0  0  0
    1.7101   -1.1114    0.8900 H   0  0  0  0  0  0  0  0  0  0  0  0
    0.3609    0.9690    0.8900 H   0  0  0  0  0  0  0  0  0  0  0  0
    0.3609    0.9690   -0.8900 H   0  0  0  0  0  0  0  0  0  0  0  0
   -0.7855   -1.2297   -0.8900 H   0  0  0  0  0  0  0  0  0  0  0  0
   -0.7855   -1.2297    0.8900 H   0  0  0  0  0  0  0  0  0  0  0  0
   -2.1348    0.8507    0.8900 H   0  0  0  0  0  0  0  0  0  0  0  0
   -2.1348    0.8507   -0.8900 H   0  0  0  0  0  0  0  0  0  0  0  0
   -3.2812   -1.3481   -0.8900 H   0  0  0  0  0  0  0  0  0  0  0  0
   -3.2812   -1.3481    0.8900 H   0  0  0  0  0  0  0  0  0  0  0  0
   -6.2411   -0.7708    1.0277 H   0  0  0  0  0  0  0  0  0  0  0  0
   -6.6513    0.0190   -0.5138 H   0  0  0  0  0  0  0  0  0  0  0  0
   -5.8308   -1.5606   -0.5138 H   0  0  0  0  0  0  0  0  0  0  0  0
  1  2  1  0  0  0  0
  2  3  1  0  0  0  0
  3  4  1  0  0  0  0
  4  5  1  0  0  0  0
  5  6  1  0  0  0  0
  6  7  1  0  0  0  0
  7  8  1  0  0  0  0
  8  9  1  0  0  0  0
  9 10  1  0  0  0  0
 10 11  1  0  0  0  0
 10 12  2  0  0  0  0
  1 13  1  0  0  0  0
  1 14  1  0  0  0  0
  1 15  1  0  0  0  0
  2 16  1  0  0  0  0
  2 17  1  0  0  0  0
  3 18  1  0  0  0  0
  3 19  1  0  0  0  0
  4 20  1  0  0  0  0
  4 21  1  0  0  0  0
  5 22  1  0  0  0  0
  5 23  1  0  0  0  0
  6 24  1  0  0  0  0
  6 25  1  0  0  0  0
  7 26  1  0  0  0  0
  7 27  1  0  0  0  0
  8 28  1  0  0  0  0
  8 29  1  0  0  0  0
  9 30  1  0  0  0  0
  9 31  1  0  0  0  0
 11 32  1  0  0  0  0
 11 33  1  0  0  0  0
 11 34  1  0  0  0  0
M  END
$$$$
