C7H6N2O4
APtclcactv05262212103D 0   0.00000     0.00000
 
 19 19  0  0  0  0  0  0  0  0999 V2000
    2.5412    1.8532   -0.1105 C   0  0  0  0  0  0  0  0  0  0  0  0
    1.1558    1.2617   -0.0689 C   0  0  0  0  0  0  0  0  0  0  0  0
    0.0493    2.0901   -0.0968 C   0  0  0  0  0  0  0  0  0  0  0  0
   -1.2214    1.5477   -0.0586 C   0  0  0  0  0  0  0  0  0  0  0  0
   -1.3859    0.1765    0.0071 C   0  0  0  0  0  0  0  0  0  0  0  0
   -0.2798   -0.6518    0.0342 C   0  0  0  0  0  0  0  0  0  0  0  0
    0.9912   -0.1093   -0.0085 C   0  0  0  0  0  0  0  0  0  0  0  0
    2.1758   -0.9963    0.0205 N   0  3  0  0  0  0  0  0  0  0  0  0
    2.1493   -2.0669   -0.5597 O   0  5  0  0  0  0  0  0  0  0  0  0
    3.1772   -0.6556    0.6245 O   0  0  0  0  0  0  0  0  0  0  0  0
   -2.7467   -0.4044    0.0491 N   0  3  0  0  0  0  0  0  0  0  0  0
   -3.7215    0.3255    0.0256 O   0  5  0  0  0  0  0  0  0  0  0  0
   -2.8917   -1.6124    0.1069 O   0  0  0  0  0  0  0  0  0  0  0  0
    2.9257    1.9498    0.9049 H   0  0  0  0  0  0  0  0  0  0  0  0
    3.1975    1.2012   -0.6869 H   0  0  0  0  0  0  0  0  0  0  0  0
    2.5026    2.8363   -0.5795 H   0  0  0  0  0  0  0  0  0  0  0  0
    0.1778    3.1612   -0.1481 H   0  0  0  0  0  0  0  0  0  0  0  0
   -2.0857    2.1949   -0.0797 H   0  0  0  0  0  0  0  0  0  0  0  0
   -0.4083   -1.7229    0.0858 H   0  0  0  0  0  0  0  0  0  0  0  0
  1  2  1  0  0  0  0
  2  3  1  0  0  0  0
  3  4  2  0  0  0  0
  4  5  1  0  0  0  0
  5  6  2  0  0  0  0
  6  7  1  0  0  0  0
  2  7  2  0  0  0  0
  7  8  1  0  0  0  0
  8  9  1  0  0  0  0
  8 10  2  0  0  0  0
  5 11  1  0  0  0  0
 11 12  1  0  0  0  0
 11 13  2  0  0  0  0
  1 14  1  0  0  0  0
  1 15  1  0  0  0  0
  1 16  1  0  0  0  0
  3 17  1  0  0  0  0
  4 18  1  0  0  0  0
  6 19  1  0  0  0  0
M  CHG  4   8   1   9  -1  11   1  12  -1
M  END
$$$$
