C9H16O2
APtclcactv05262212113D 0   0.00000     0.00000
 
 27 26  0  0  0  0  0  0  0  0999 V2000
    5.4722   -0.1487   -0.0000 C   0  0  0  0  0  0  0  0  0  0  0  0
    4.1143    0.5563    0.0000 C   0  0  0  0  0  0  0  0  0  0  0  0
    2.9970   -0.4890   -0.0000 C   0  0  0  0  0  0  0  0  0  0  0  0
    1.6391    0.2160    0.0000 C   0  0  0  0  0  0  0  0  0  0  0  0
    0.5218   -0.8292    0.0000 C   0  0  0  0  0  0  0  0  0  0  0  0
   -0.8157   -0.1349    0.0000 C   0  0  0  0  0  0  0  0  0  0  0  0
   -0.8697    1.0715    0.0000 O   0  0  0  0  0  0  0  0  0  0  0  0
   -2.0858   -0.9460    0.0000 C   0  0  0  0  0  0  0  0  0  0  0  0
   -3.2739   -0.0189   -0.0000 C   0  0  0  0  0  0  0  0  0  0  0  0
   -4.6708   -0.5843    0.0000 C   0  0  0  0  0  0  0  0  0  0  0  0
   -3.1066    1.1770   -0.0000 O   0  0  0  0  0  0  0  0  0  0  0  0
    6.2681    0.5960    0.0000 H   0  0  0  0  0  0  0  0  0  0  0  0
    5.5579   -0.7721    0.8900 H   0  0  0  0  0  0  0  0  0  0  0  0
    5.5579   -0.7721   -0.8900 H   0  0  0  0  0  0  0  0  0  0  0  0
    4.0285    1.1797    0.8900 H   0  0  0  0  0  0  0  0  0  0  0  0
    4.0285    1.1797   -0.8900 H   0  0  0  0  0  0  0  0  0  0  0  0
    3.0827   -1.1124   -0.8900 H   0  0  0  0  0  0  0  0  0  0  0  0
    3.0827   -1.1124    0.8900 H   0  0  0  0  0  0  0  0  0  0  0  0
    1.5533    0.8395    0.8900 H   0  0  0  0  0  0  0  0  0  0  0  0
    1.5533    0.8395   -0.8900 H   0  0  0  0  0  0  0  0  0  0  0  0
    0.6075   -1.4527   -0.8900 H   0  0  0  0  0  0  0  0  0  0  0  0
    0.6075   -1.4527    0.8900 H   0  0  0  0  0  0  0  0  0  0  0  0
   -2.1155   -1.5746   -0.8900 H   0  0  0  0  0  0  0  0  0  0  0  0
   -2.1155   -1.5746    0.8900 H   0  0  0  0  0  0  0  0  0  0  0  0
   -4.6221   -1.6732    0.0000 H   0  0  0  0  0  0  0  0  0  0  0  0
   -5.2004   -0.2443    0.8900 H   0  0  0  0  0  0  0  0  0  0  0  0
   -5.2004   -0.2443   -0.8900 H   0  0  0  0  0  0  0  0  0  0  0  0
  1  2  1  0  0  0  0
  2  3  1  0  0  0  0
  3  4  1  0  0  0  0
  4  5  1  0  0  0  0
  5  6  1  0  0  0  0
  6  7  2  0  0  0  0
  6  8  1  0  0  0  0
  8  9  1  0  0  0  0
  9 10  1  0  0  0  0
  9 11  2  0  0  0  0
  1 12  1  0  0  0  0
  1 13  1  0  0  0  0
  1 14  1  0  0  0  0
  2 15  1  0  0  0  0
  2 16  1  0  0  0  0
  3 17  1  0  0  0  0
  3 18  1  0  0  0  0
  4 19  1  0  0  0  0
  4 20  1  0  0  0  0
  5 21  1  0  0  0  0
  5 22  1  0  0  0  0
  8 23  1  0  0  0  0
  8 24  1  0  0  0  0
 10 25  1  0  0  0  0
 10 26  1  0  0  0  0
 10 27  1  0  0  0  0
M  END
$$$$
