C8H14O2
APtclcactv05262212113D 0   0.00000     0.00000
 
 24 23  0  0  0  0  0  0  0  0999 V2000
    4.6719   -0.4598   -0.0000 C   0  0  0  0  0  0  0  0  0  0  0  0
    3.5375    0.5669    0.0000 C   0  0  0  0  0  0  0  0  0  0  0  0
    2.1914   -0.1603   -0.0000 C   0  0  0  0  0  0  0  0  0  0  0  0
    1.0571    0.8664    0.0000 C   0  0  0  0  0  0  0  0  0  0  0  0
   -0.2688    0.1501   -0.0000 C   0  0  0  0  0  0  0  0  0  0  0  0
   -0.3030   -1.0570   -0.0000 O   0  0  0  0  0  0  0  0  0  0  0  0
   -1.5521    0.9402   -0.0000 C   0  0  0  0  0  0  0  0  0  0  0  0
   -2.7248   -0.0063    0.0000 C   0  0  0  0  0  0  0  0  0  0  0  0
   -4.1308    0.5360   -0.0000 C   0  0  0  0  0  0  0  0  0  0  0  0
   -2.5378   -1.1993    0.0000 O   0  0  0  0  0  0  0  0  0  0  0  0
    5.6309    0.0583    0.0000 H   0  0  0  0  0  0  0  0  0  0  0  0
    4.5964   -1.0846    0.8900 H   0  0  0  0  0  0  0  0  0  0  0  0
    4.5964   -1.0846   -0.8900 H   0  0  0  0  0  0  0  0  0  0  0  0
    3.6130    1.1917    0.8900 H   0  0  0  0  0  0  0  0  0  0  0  0
    3.6130    1.1917   -0.8900 H   0  0  0  0  0  0  0  0  0  0  0  0
    2.1160   -0.7851   -0.8900 H   0  0  0  0  0  0  0  0  0  0  0  0
    2.1160   -0.7851    0.8900 H   0  0  0  0  0  0  0  0  0  0  0  0
    1.1325    1.4912    0.8900 H   0  0  0  0  0  0  0  0  0  0  0  0
    1.1325    1.4912   -0.8900 H   0  0  0  0  0  0  0  0  0  0  0  0
   -1.5921    1.5683    0.8900 H   0  0  0  0  0  0  0  0  0  0  0  0
   -1.5921    1.5683   -0.8900 H   0  0  0  0  0  0  0  0  0  0  0  0
   -4.4698    0.6668   -1.0277 H   0  0  0  0  0  0  0  0  0  0  0  0
   -4.7901   -0.1636    0.5138 H   0  0  0  0  0  0  0  0  0  0  0  0
   -4.1495    1.4971    0.5138 H   0  0  0  0  0  0  0  0  0  0  0  0
  1  2  1  0  0  0  0
  2  3  1  0  0  0  0
  3  4  1  0  0  0  0
  4  5  1  0  0  0  0
  5  6  2  0  0  0  0
  5  7  1  0  0  0  0
  7  8  1  0  0  0  0
  8  9  1  0  0  0  0
  8 10  2  0  0  0  0
  1 11  1  0  0  0  0
  1 12  1  0  0  0  0
  1 13  1  0  0  0  0
  2 14  1  0  0  0  0
  2 15  1  0  0  0  0
  3 16  1  0  0  0  0
  3 17  1  0  0  0  0
  4 18  1  0  0  0  0
  4 19  1  0  0  0  0
  7 20  1  0  0  0  0
  7 21  1  0  0  0  0
  9 22  1  0  0  0  0
  9 23  1  0  0  0  0
  9 24  1  0  0  0  0
M  END
$$$$
