C8H16O
APtclcactv05262212113D 0   0.00000     0.00000
 
 25 24  0  0  0  0  0  0  0  0999 V2000
    4.6121   -0.1798   -0.0000 C   0  0  0  0  0  0  0  0  0  0  0  0
    3.2698    0.5544    0.0000 C   0  0  0  0  0  0  0  0  0  0  0  0
    2.1301   -0.4665   -0.0000 C   0  0  0  0  0  0  0  0  0  0  0  0
    0.7878    0.2677    0.0000 C   0  0  0  0  0  0  0  0  0  0  0  0
   -0.3519   -0.7531    0.0000 C   0  0  0  0  0  0  0  0  0  0  0  0
   -1.6740   -0.0300    0.0000 C   0  0  0  0  0  0  0  0  0  0  0  0
   -1.7019    1.1773    0.0000 O   0  0  0  0  0  0  0  0  0  0  0  0
   -2.9614   -0.8134    0.0000 C   0  0  0  0  0  0  0  0  0  0  0  0
   -4.1469    0.1537   -0.0000 C   0  0  0  0  0  0  0  0  0  0  0  0
    5.4240    0.5474    0.0000 H   0  0  0  0  0  0  0  0  0  0  0  0
    4.6843   -0.8050    0.8900 H   0  0  0  0  0  0  0  0  0  0  0  0
    4.6843   -0.8050   -0.8900 H   0  0  0  0  0  0  0  0  0  0  0  0
    3.1976    1.1795    0.8900 H   0  0  0  0  0  0  0  0  0  0  0  0
    3.1976    1.1795   -0.8900 H   0  0  0  0  0  0  0  0  0  0  0  0
    2.2023   -1.0916   -0.8900 H   0  0  0  0  0  0  0  0  0  0  0  0
    2.2023   -1.0916    0.8900 H   0  0  0  0  0  0  0  0  0  0  0  0
    0.7156    0.8929    0.8900 H   0  0  0  0  0  0  0  0  0  0  0  0
    0.7156    0.8929   -0.8900 H   0  0  0  0  0  0  0  0  0  0  0  0
   -0.2797   -1.3783   -0.8900 H   0  0  0  0  0  0  0  0  0  0  0  0
   -0.2797   -1.3783    0.8900 H   0  0  0  0  0  0  0  0  0  0  0  0
   -3.0046   -1.4412   -0.8900 H   0  0  0  0  0  0  0  0  0  0  0  0
   -3.0046   -1.4412    0.8900 H   0  0  0  0  0  0  0  0  0  0  0  0
   -5.0781   -0.4130   -0.0000 H   0  0  0  0  0  0  0  0  0  0  0  0
   -4.1037    0.7815    0.8900 H   0  0  0  0  0  0  0  0  0  0  0  0
   -4.1037    0.7815   -0.8900 H   0  0  0  0  0  0  0  0  0  0  0  0
  1  2  1  0  0  0  0
  2  3  1  0  0  0  0
  3  4  1  0  0  0  0
  4  5  1  0  0  0  0
  5  6  1  0  0  0  0
  6  7  2  0  0  0  0
  6  8  1  0  0  0  0
  8  9  1  0  0  0  0
  1 10  1  0  0  0  0
  1 11  1  0  0  0  0
  1 12  1  0  0  0  0
  2 13  1  0  0  0  0
  2 14  1  0  0  0  0
  3 15  1  0  0  0  0
  3 16  1  0  0  0  0
  4 17  1  0  0  0  0
  4 18  1  0  0  0  0
  5 19  1  0  0  0  0
  5 20  1  0  0  0  0
  8 21  1  0  0  0  0
  8 22  1  0  0  0  0
  9 23  1  0  0  0  0
  9 24  1  0  0  0  0
  9 25  1  0  0  0  0
M  END
$$$$
