C10H16O
APtclcactv05262212113D 0   0.00000     0.00000
 
 27 26  0  0  0  0  0  0  0  0999 V2000
   -5.3363    1.0643   -0.0379 C   0  0  0  0  0  0  0  0  0  0  0  0
   -4.3723   -0.0493    0.3763 C   0  0  0  0  0  0  0  0  0  0  0  0
   -2.9853    0.2348   -0.2039 C   0  0  0  0  0  0  0  0  0  0  0  0
   -2.0213   -0.8788    0.2103 C   0  0  0  0  0  0  0  0  0  0  0  0
   -0.6552   -0.5989   -0.3611 C   0  0  0  0  0  0  0  0  0  0  0  0
    0.4069   -0.5440    0.4452 C   0  0  0  0  0  0  0  0  0  0  0  0
    1.7327   -0.2723   -0.1094 C   0  0  0  0  0  0  0  0  0  0  0  0
    1.8670   -0.0970   -1.3024 O   0  0  0  0  0  0  0  0  0  0  0  0
    2.9320   -0.2103    0.8011 C   0  0  0  0  0  0  0  0  0  0  0  0
    4.1662    0.0813   -0.0131 C   0  0  0  0  0  0  0  0  0  0  0  0
    4.9263    1.1034    0.2928 C   0  0  0  0  0  0  0  0  0  0  0  0
   -5.3986    1.1050   -1.1254 H   0  0  0  0  0  0  0  0  0  0  0  0
   -6.3243    0.8618    0.3753 H   0  0  0  0  0  0  0  0  0  0  0  0
   -4.9725    2.0193    0.3412 H   0  0  0  0  0  0  0  0  0  0  0  0
   -4.3099   -0.0900    1.4637 H   0  0  0  0  0  0  0  0  0  0  0  0
   -4.7360   -1.0044   -0.0028 H   0  0  0  0  0  0  0  0  0  0  0  0
   -3.0477    0.2755   -1.2913 H   0  0  0  0  0  0  0  0  0  0  0  0
   -2.6216    1.1899    0.1752 H   0  0  0  0  0  0  0  0  0  0  0  0
   -1.9590   -0.9195    1.2978 H   0  0  0  0  0  0  0  0  0  0  0  0
   -2.3851   -1.8338   -0.1688 H   0  0  0  0  0  0  0  0  0  0  0  0
   -0.5357   -0.4428   -1.4230 H   0  0  0  0  0  0  0  0  0  0  0  0
    0.2873   -0.7001    1.5071 H   0  0  0  0  0  0  0  0  0  0  0  0
    2.7881    0.5796    1.5383 H   0  0  0  0  0  0  0  0  0  0  0  0
    3.0507   -1.1662    1.3112 H   0  0  0  0  0  0  0  0  0  0  0  0
    4.4240   -0.5524   -0.8488 H   0  0  0  0  0  0  0  0  0  0  0  0
    5.8108    1.3124   -0.2906 H   0  0  0  0  0  0  0  0  0  0  0  0
    4.6685    1.7371    1.1285 H   0  0  0  0  0  0  0  0  0  0  0  0
  1  2  1  0  0  0  0
  2  3  1  0  0  0  0
  3  4  1  0  0  0  0
  4  5  1  0  0  0  0
  5  6  2  0  0  0  0
  6  7  1  0  0  0  0
  7  8  2  0  0  0  0
  7  9  1  0  0  0  0
  9 10  1  0  0  0  0
 10 11  2  0  0  0  0
  1 12  1  0  0  0  0
  1 13  1  0  0  0  0
  1 14  1  0  0  0  0
  2 15  1  0  0  0  0
  2 16  1  0  0  0  0
  3 17  1  0  0  0  0
  3 18  1  0  0  0  0
  4 19  1  0  0  0  0
  4 20  1  0  0  0  0
  5 21  1  0  0  0  0
  6 22  1  0  0  0  0
  9 23  1  0  0  0  0
  9 24  1  0  0  0  0
 10 25  1  0  0  0  0
 11 26  1  0  0  0  0
 11 27  1  0  0  0  0
M  END
$$$$
