C10H12O
APtclcactv05262212113D 0   0.00000     0.00000
 
 23 23  0  0  0  0  0  0  0  0999 V2000
   -4.6489   -0.5820   -0.5054 O   0  0  0  0  0  0  0  0  0  0  0  0
   -3.7515    0.2224   -0.5812 C   0  0  0  0  0  0  0  0  0  0  0  0
   -2.7285    0.3161    0.5215 C   0  0  0  0  0  0  0  0  0  0  0  0
   -1.3262    0.1546   -0.0687 C   0  0  0  0  0  0  0  0  0  0  0  0
   -0.2876    0.2497    1.0507 C   0  0  0  0  0  0  0  0  0  0  0  0
    1.0936    0.0905    0.4694 C   0  0  0  0  0  0  0  0  0  0  0  0
    1.7947    1.2016    0.0394 C   0  0  0  0  0  0  0  0  0  0  0  0
    3.0617    1.0556   -0.4939 C   0  0  0  0  0  0  0  0  0  0  0  0
    3.6277   -0.2014   -0.5968 C   0  0  0  0  0  0  0  0  0  0  0  0
    2.9269   -1.3123   -0.1660 C   0  0  0  0  0  0  0  0  0  0  0  0
    1.6617   -1.1659    0.3713 C   0  0  0  0  0  0  0  0  0  0  0  0
   -3.6794    0.8717   -1.4412 H   0  0  0  0  0  0  0  0  0  0  0  0
   -2.8078    1.2878    1.0090 H   0  0  0  0  0  0  0  0  0  0  0  0
   -2.9083   -0.4727    1.2519 H   0  0  0  0  0  0  0  0  0  0  0  0
   -1.2469   -0.8171   -0.5563 H   0  0  0  0  0  0  0  0  0  0  0  0
   -1.1463    0.9433   -0.7992 H   0  0  0  0  0  0  0  0  0  0  0  0
   -0.3669    1.2213    1.5383 H   0  0  0  0  0  0  0  0  0  0  0  0
   -0.4675   -0.5391    1.7812 H   0  0  0  0  0  0  0  0  0  0  0  0
    1.3525    2.1836    0.1198 H   0  0  0  0  0  0  0  0  0  0  0  0
    3.6092    1.9236   -0.8305 H   0  0  0  0  0  0  0  0  0  0  0  0
    4.6173   -0.3155   -1.0141 H   0  0  0  0  0  0  0  0  0  0  0  0
    3.3690   -2.2944   -0.2467 H   0  0  0  0  0  0  0  0  0  0  0  0
    1.1142   -2.0338    0.7079 H   0  0  0  0  0  0  0  0  0  0  0  0
  1  2  2  0  0  0  0
  2  3  1  0  0  0  0
  3  4  1  0  0  0  0
  4  5  1  0  0  0  0
  5  6  1  0  0  0  0
  6  7  1  0  0  0  0
  7  8  2  0  0  0  0
  8  9  1  0  0  0  0
  9 10  2  0  0  0  0
 10 11  1  0  0  0  0
  6 11  2  0  0  0  0
  2 12  1  0  0  0  0
  3 13  1  0  0  0  0
  3 14  1  0  0  0  0
  4 15  1  0  0  0  0
  4 16  1  0  0  0  0
  5 17  1  0  0  0  0
  5 18  1  0  0  0  0
  7 19  1  0  0  0  0
  8 20  1  0  0  0  0
  9 21  1  0  0  0  0
 10 22  1  0  0  0  0
 11 23  1  0  0  0  0
M  END
$$$$
