C6H10BrO2
APtclcactv05262212103D 0   0.00000     0.00000
 
 19 18  0  0  0  0  0  0  0  0999 V2000
    4.3423   -1.3631    0.0008 O   0  5  0  0  0  0  0  0  0  0  0  0
    4.4884   -0.1526    0.0013 C   0  0  0  0  0  0  0  0  0  0  0  0
    5.6096    0.3262   -0.0034 O   0  0  0  0  0  0  0  0  0  0  0  0
    3.2829    0.7518    0.0014 C   0  0  0  0  0  0  0  0  0  0  0  0
    2.0093   -0.0960    0.0008 C   0  0  0  0  0  0  0  0  0  0  0  0
    0.7854    0.8221    0.0009 C   0  0  0  0  0  0  0  0  0  0  0  0
   -0.4882   -0.0257    0.0003 C   0  0  0  0  0  0  0  0  0  0  0  0
   -1.7121    0.8925    0.0004 C   0  0  0  0  0  0  0  0  0  0  0  0
   -3.3486   -0.1969   -0.0004 Br  0  0  0  0  0  0  0  0  0  0  0  0
    3.3004    1.3805    0.8916 H   0  0  0  0  0  0  0  0  0  0  0  0
    3.3008    1.3812   -0.8883 H   0  0  0  0  0  0  0  0  0  0  0  0
    1.9917   -0.7247   -0.8894 H   0  0  0  0  0  0  0  0  0  0  0  0
    1.9914   -0.7255    0.8905 H   0  0  0  0  0  0  0  0  0  0  0  0
    0.8030    1.4508    0.8911 H   0  0  0  0  0  0  0  0  0  0  0  0
    0.8033    1.4516   -0.8888 H   0  0  0  0  0  0  0  0  0  0  0  0
   -0.5057   -0.6544   -0.8899 H   0  0  0  0  0  0  0  0  0  0  0  0
   -0.5061   -0.6551    0.8900 H   0  0  0  0  0  0  0  0  0  0  0  0
   -1.6945    1.5212    0.8907 H   0  0  0  0  0  0  0  0  0  0  0  0
   -1.6942    1.5219   -0.8893 H   0  0  0  0  0  0  0  0  0  0  0  0
  1  2  1  0  0  0  0
  2  3  2  0  0  0  0
  2  4  1  0  0  0  0
  4  5  1  0  0  0  0
  5  6  1  0  0  0  0
  6  7  1  0  0  0  0
  7  8  1  0  0  0  0
  8  9  1  0  0  0  0
  4 10  1  0  0  0  0
  4 11  1  0  0  0  0
  5 12  1  0  0  0  0
  5 13  1  0  0  0  0
  6 14  1  0  0  0  0
  6 15  1  0  0  0  0
  7 16  1  0  0  0  0
  7 17  1  0  0  0  0
  8 18  1  0  0  0  0
  8 19  1  0  0  0  0
M  CHG  1   1  -1
M  END
$$$$
