C10H20O
APtclcactv05262212113D 0   0.00000     0.00000
 
 31 30  0  0  0  0  0  0  0  0999 V2000
    5.9952   -0.2715   -0.1161 O   0  0  0  0  0  0  0  0  0  0  0  0
    4.8105    0.5265   -0.0763 C   0  0  0  0  0  0  0  0  0  0  0  0
    3.5825   -0.3853   -0.0359 C   0  0  0  0  0  0  0  0  0  0  0  0
    2.3140    0.4690    0.0067 C   0  0  0  0  0  0  0  0  0  0  0  0
    1.0861   -0.4428    0.0471 C   0  0  0  0  0  0  0  0  0  0  0  0
   -0.1824    0.4116    0.0898 C   0  0  0  0  0  0  0  0  0  0  0  0
   -1.4104   -0.5002    0.1301 C   0  0  0  0  0  0  0  0  0  0  0  0
   -2.6789    0.3541    0.1728 C   0  0  0  0  0  0  0  0  0  0  0  0
   -3.9068   -0.5577    0.2131 C   0  0  0  0  0  0  0  0  0  0  0  0
   -5.1562    0.2838    0.2552 C   0  0  0  0  0  0  0  0  0  0  0  0
   -6.0934    0.1103   -0.6436 C   0  0  0  0  0  0  0  0  0  0  0  0
    6.8144    0.2417   -0.1431 H   0  0  0  0  0  0  0  0  0  0  0  0
    4.8256    1.1551    0.8141 H   0  0  0  0  0  0  0  0  0  0  0  0
    4.7664    1.1562   -0.9649 H   0  0  0  0  0  0  0  0  0  0  0  0
    3.5674   -1.0140   -0.9263 H   0  0  0  0  0  0  0  0  0  0  0  0
    3.6266   -1.0150    0.8527 H   0  0  0  0  0  0  0  0  0  0  0  0
    2.3292    1.0977    0.8971 H   0  0  0  0  0  0  0  0  0  0  0  0
    2.2700    1.0987   -0.8819 H   0  0  0  0  0  0  0  0  0  0  0  0
    1.0709   -1.0714   -0.8432 H   0  0  0  0  0  0  0  0  0  0  0  0
    1.1301   -1.0724    0.9357 H   0  0  0  0  0  0  0  0  0  0  0  0
   -0.1673    1.0402    0.9801 H   0  0  0  0  0  0  0  0  0  0  0  0
   -0.2265    1.0412   -0.7989 H   0  0  0  0  0  0  0  0  0  0  0  0
   -1.4255   -1.1289   -0.7602 H   0  0  0  0  0  0  0  0  0  0  0  0
   -1.3663   -1.1299    1.0187 H   0  0  0  0  0  0  0  0  0  0  0  0
   -2.6637    0.9828    1.0631 H   0  0  0  0  0  0  0  0  0  0  0  0
   -2.7229    0.9838   -0.7159 H   0  0  0  0  0  0  0  0  0  0  0  0
   -3.9219   -1.1863   -0.6772 H   0  0  0  0  0  0  0  0  0  0  0  0
   -3.8627   -1.1873    1.1018 H   0  0  0  0  0  0  0  0  0  0  0  0
   -5.2790    1.0300    1.0262 H   0  0  0  0  0  0  0  0  0  0  0  0
   -5.9705   -0.6358   -1.4147 H   0  0  0  0  0  0  0  0  0  0  0  0
   -6.9888    0.7134   -0.6135 H   0  0  0  0  0  0  0  0  0  0  0  0
  1  2  1  0  0  0  0
  2  3  1  0  0  0  0
  3  4  1  0  0  0  0
  4  5  1  0  0  0  0
  5  6  1  0  0  0  0
  6  7  1  0  0  0  0
  7  8  1  0  0  0  0
  8  9  1  0  0  0  0
  9 10  1  0  0  0  0
 10 11  2  0  0  0  0
  1 12  1  0  0  0  0
  2 13  1  0  0  0  0
  2 14  1  0  0  0  0
  3 15  1  0  0  0  0
  3 16  1  0  0  0  0
  4 17  1  0  0  0  0
  4 18  1  0  0  0  0
  5 19  1  0  0  0  0
  5 20  1  0  0  0  0
  6 21  1  0  0  0  0
  6 22  1  0  0  0  0
  7 23  1  0  0  0  0
  7 24  1  0  0  0  0
  8 25  1  0  0  0  0
  8 26  1  0  0  0  0
  9 27  1  0  0  0  0
  9 28  1  0  0  0  0
 10 29  1  0  0  0  0
 11 30  1  0  0  0  0
 11 31  1  0  0  0  0
M  END
$$$$
