C4H8O2
APtclcactv05262211513D 0   0.00000     0.00000
 
 14 13  0  0  0  0  0  0  0  0999 V2000
    1.1750   -1.3048   -0.5849 C   0  0  0  0  0  0  0  0  0  0  0  0
    0.6593   -0.2535    0.3998 C   0  0  0  0  0  0  0  0  0  0  0  0
    1.5127    0.8921    0.3639 O   0  0  0  0  0  0  0  0  0  0  0  0
   -0.7407    0.1508    0.0154 C   0  0  0  0  0  0  0  0  0  0  0  0
   -1.9084   -0.7229    0.3950 C   0  0  0  0  0  0  0  0  0  0  0  0
   -0.9268    1.1750   -0.5967 O   0  0  0  0  0  0  0  0  0  0  0  0
    2.1876   -1.5972   -0.3069 H   0  0  0  0  0  0  0  0  0  0  0  0
    0.5240   -2.1786   -0.5575 H   0  0  0  0  0  0  0  0  0  0  0  0
    1.1809   -0.8875   -1.5918 H   0  0  0  0  0  0  0  0  0  0  0  0
    0.6534   -0.6707    1.4068 H   0  0  0  0  0  0  0  0  0  0  0  0
    2.4315    0.7057    0.6008 H   0  0  0  0  0  0  0  0  0  0  0  0
   -1.5473   -1.5960    0.9386 H   0  0  0  0  0  0  0  0  0  0  0  0
   -2.5937   -0.1589    1.0276 H   0  0  0  0  0  0  0  0  0  0  0  0
   -2.4287   -1.0460   -0.5067 H   0  0  0  0  0  0  0  0  0  0  0  0
  1  2  1  0  0  0  0
  2  3  1  0  0  0  0
  2  4  1  0  0  0  0
  4  5  1  0  0  0  0
  4  6  2  0  0  0  0
  1  7  1  0  0  0  0
  1  8  1  0  0  0  0
  1  9  1  0  0  0  0
  2 10  1  0  0  0  0
  3 11  1  0  0  0  0
  5 12  1  0  0  0  0
  5 13  1  0  0  0  0
  5 14  1  0  0  0  0
M  END
$$$$
