C10H18O2
APtclcactv05262212103D 0   0.00000     0.00000
 
 30 29  0  0  0  0  0  0  0  0999 V2000
    6.2283   -0.3615   -0.1115 C   0  0  0  0  0  0  0  0  0  0  0  0
    5.0052    0.5571   -0.0769 C   0  0  0  0  0  0  0  0  0  0  0  0
    3.7318   -0.2902   -0.0403 C   0  0  0  0  0  0  0  0  0  0  0  0
    2.5088    0.6284   -0.0057 C   0  0  0  0  0  0  0  0  0  0  0  0
    1.2354   -0.2189    0.0309 C   0  0  0  0  0  0  0  0  0  0  0  0
    0.0123    0.6997    0.0656 C   0  0  0  0  0  0  0  0  0  0  0  0
   -1.2419   -0.1349    0.1016 C   0  0  0  0  0  0  0  0  0  0  0  0
   -1.1655   -1.3407    0.0998 O   0  0  0  0  0  0  0  0  0  0  0  0
   -2.4441    0.4613    0.1357 O   0  0  0  0  0  0  0  0  0  0  0  0
   -3.6088   -0.4050    0.1692 C   0  0  0  0  0  0  0  0  0  0  0  0
   -4.8592    0.4355    0.2046 C   0  0  0  0  0  0  0  0  0  0  0  0
   -5.8727    0.1347   -0.5689 C   0  0  0  0  0  0  0  0  0  0  0  0
    6.2357   -0.9903    0.7788 H   0  0  0  0  0  0  0  0  0  0  0  0
    6.1849   -0.9908   -1.0004 H   0  0  0  0  0  0  0  0  0  0  0  0
    7.1355    0.2422   -0.1376 H   0  0  0  0  0  0  0  0  0  0  0  0
    5.0486    1.1865    0.8120 H   0  0  0  0  0  0  0  0  0  0  0  0
    4.9978    1.1859   -0.9672 H   0  0  0  0  0  0  0  0  0  0  0  0
    3.6885   -0.9195   -0.9292 H   0  0  0  0  0  0  0  0  0  0  0  0
    3.7393   -0.9190    0.8500 H   0  0  0  0  0  0  0  0  0  0  0  0
    2.5521    1.2577    0.8833 H   0  0  0  0  0  0  0  0  0  0  0  0
    2.5013    1.2572   -0.8960 H   0  0  0  0  0  0  0  0  0  0  0  0
    1.1921   -0.8483   -0.8580 H   0  0  0  0  0  0  0  0  0  0  0  0
    1.2428   -0.8477    0.9213 H   0  0  0  0  0  0  0  0  0  0  0  0
    0.0557    1.3290    0.9545 H   0  0  0  0  0  0  0  0  0  0  0  0
    0.0049    1.3285   -0.8248 H   0  0  0  0  0  0  0  0  0  0  0  0
   -3.6192   -1.0344   -0.7206 H   0  0  0  0  0  0  0  0  0  0  0  0
   -3.5684   -1.0339    1.0586 H   0  0  0  0  0  0  0  0  0  0  0  0
   -4.9196    1.2858    0.8677 H   0  0  0  0  0  0  0  0  0  0  0  0
   -6.7688    0.7371   -0.5435 H   0  0  0  0  0  0  0  0  0  0  0  0
   -5.8123   -0.7156   -1.2320 H   0  0  0  0  0  0  0  0  0  0  0  0
  1  2  1  0  0  0  0
  2  3  1  0  0  0  0
  3  4  1  0  0  0  0
  4  5  1  0  0  0  0
  5  6  1  0  0  0  0
  6  7  1  0  0  0  0
  7  8  2  0  0  0  0
  7  9  1  0  0  0  0
  9 10  1  0  0  0  0
 10 11  1  0  0  0  0
 11 12  2  0  0  0  0
  1 13  1  0  0  0  0
  1 14  1  0  0  0  0
  1 15  1  0  0  0  0
  2 16  1  0  0  0  0
  2 17  1  0  0  0  0
  3 18  1  0  0  0  0
  3 19  1  0  0  0  0
  4 20  1  0  0  0  0
  4 21  1  0  0  0  0
  5 22  1  0  0  0  0
  5 23  1  0  0  0  0
  6 24  1  0  0  0  0
  6 25  1  0  0  0  0
 10 26  1  0  0  0  0
 10 27  1  0  0  0  0
 11 28  1  0  0  0  0
 12 29  1  0  0  0  0
 12 30  1  0  0  0  0
M  END
$$$$
