C19H26O
APtclcactv05262212113D 0   0.00000     0.00000
 
 46 49  0  0  1  0  0  0  0  0999 V2000
   -2.7708    0.7328   -1.4373 C   0  0  0  0  0  0  0  0  0  0  0  0
   -2.8452    0.7395    0.0909 C   0  0  2  0  0  0  0  0  0  0  0  0
   -2.0360    1.8988    0.6228 C   0  0  0  0  0  0  0  0  0  0  0  0
   -0.6357    1.7912   -0.0062 C   0  0  0  0  0  0  0  0  0  0  0  0
    0.0164    0.4441    0.2844 C   0  0  1  0  0  0  0  0  0  0  0  0
    0.2254    0.3737    1.3518 H   0  0  0  0  0  0  0  0  0  0  0  0
   -0.8830   -0.7346   -0.1292 C   0  0  1  0  0  0  0  0  0  0  0  0
   -1.0626   -0.7008   -1.2038 H   0  0  0  0  0  0  0  0  0  0  0  0
   -0.2110   -2.0571    0.2399 C   0  0  0  0  0  0  0  0  0  0  0  0
    1.1031   -2.2141   -0.5340 C   0  0  0  0  0  0  0  0  0  0  0  0
    1.9536   -0.9878   -0.2490 C   0  0  0  0  0  0  0  0  0  0  0  0
    3.1927   -1.1547    0.2044 C   0  0  0  0  0  0  0  0  0  0  0  0
    4.0019    0.0309    0.5208 C   0  0  0  0  0  0  0  0  0  0  0  0
    5.2148    0.0054    0.5002 O   0  0  0  0  0  0  0  0  0  0  0  0
    3.2306    1.2888    0.8742 C   0  0  0  0  0  0  0  0  0  0  0  0
    2.2212    1.5411   -0.2452 C   0  0  0  0  0  0  0  0  0  0  0  0
    1.3309    0.3323   -0.4885 C   0  0  2  0  0  0  0  0  0  0  0  0
    0.9554    0.3530   -1.9715 C   0  0  0  0  0  0  0  0  0  0  0  0
   -2.1936   -0.5650    0.6382 C   0  0  2  0  0  0  0  0  0  0  0  0
   -2.0195   -0.5187    1.7132 H   0  0  0  0  0  0  0  0  0  0  0  0
   -3.3250   -1.5446    0.2951 C   0  0  0  0  0  0  0  0  0  0  0  0
   -4.5650   -0.7072    0.6090 C   0  0  0  0  0  0  0  0  0  0  0  0
   -4.2673    0.5870    0.5133 C   0  0  0  0  0  0  0  0  0  0  0  0
   -1.7267    0.7375   -1.7502 H   0  0  0  0  0  0  0  0  0  0  0  0
   -3.2611   -0.1620   -1.8210 H   0  0  0  0  0  0  0  0  0  0  0  0
   -3.2716    1.6180   -1.8294 H   0  0  0  0  0  0  0  0  0  0  0  0
   -2.5021    2.8412    0.3352 H   0  0  0  0  0  0  0  0  0  0  0  0
   -1.9626    1.8345    1.7084 H   0  0  0  0  0  0  0  0  0  0  0  0
   -0.7208    1.9187   -1.0854 H   0  0  0  0  0  0  0  0  0  0  0  0
   -0.0048    2.5845    0.3947 H   0  0  0  0  0  0  0  0  0  0  0  0
   -0.0041   -2.0711    1.3100 H   0  0  0  0  0  0  0  0  0  0  0  0
   -0.8776   -2.8830   -0.0083 H   0  0  0  0  0  0  0  0  0  0  0  0
    1.6241   -3.1113   -0.1999 H   0  0  0  0  0  0  0  0  0  0  0  0
    0.8973   -2.2813   -1.6023 H   0  0  0  0  0  0  0  0  0  0  0  0
    3.5982   -2.1467    0.3384 H   0  0  0  0  0  0  0  0  0  0  0  0
    2.7068    1.1481    1.8197 H   0  0  0  0  0  0  0  0  0  0  0  0
    3.9155    2.1331    0.9520 H   0  0  0  0  0  0  0  0  0  0  0  0
    1.6016    2.3964    0.0243 H   0  0  0  0  0  0  0  0  0  0  0  0
    2.7622    1.7745   -1.1623 H   0  0  0  0  0  0  0  0  0  0  0  0
    1.8603    0.2956   -2.5763 H   0  0  0  0  0  0  0  0  0  0  0  0
    0.3138   -0.4992   -2.1958 H   0  0  0  0  0  0  0  0  0  0  0  0
    0.4243    1.2773   -2.1990 H   0  0  0  0  0  0  0  0  0  0  0  0
   -3.2966   -1.8201   -0.7591 H   0  0  0  0  0  0  0  0  0  0  0  0
   -3.2808   -2.4297    0.9297 H   0  0  0  0  0  0  0  0  0  0  0  0
   -5.5312   -1.1082    0.8773 H   0  0  0  0  0  0  0  0  0  0  0  0
   -4.9485    1.4036    0.7015 H   0  0  0  0  0  0  0  0  0  0  0  0
  1  2  1  0  0  0  0
  2  3  1  0  0  0  0
  3  4  1  0  0  0  0
  4  5  1  0  0  0  0
  5  6  1  0  0  0  0
  5  7  1  0  0  0  0
  7  8  1  0  0  0  0
  7  9  1  0  0  0  0
  9 10  1  0  0  0  0
 10 11  1  0  0  0  0
 11 12  2  0  0  0  0
 12 13  1  0  0  0  0
 13 14  2  0  0  0  0
 13 15  1  0  0  0  0
 15 16  1  0  0  0  0
 16 17  1  0  0  0  0
  5 17  1  0  0  0  0
 11 17  1  0  0  0  0
 17 18  1  0  0  0  0
  7 19  1  0  0  0  0
 19 20  1  0  0  0  0
  2 19  1  0  0  0  0
 19 21  1  0  0  0  0
 21 22  1  0  0  0  0
 22 23  2  0  0  0  0
  2 23  1  0  0  0  0
  1 24  1  0  0  0  0
  1 25  1  0  0  0  0
  1 26  1  0  0  0  0
  3 27  1  0  0  0  0
  3 28  1  0  0  0  0
  4 29  1  0  0  0  0
  4 30  1  0  0  0  0
  9 31  1  0  0  0  0
  9 32  1  0  0  0  0
 10 33  1  0  0  0  0
 10 34  1  0  0  0  0
 12 35  1  0  0  0  0
 15 36  1  0  0  0  0
 15 37  1  0  0  0  0
 16 38  1  0  0  0  0
 16 39  1  0  0  0  0
 18 40  1  0  0  0  0
 18 41  1  0  0  0  0
 18 42  1  0  0  0  0
 21 43  1  0  0  0  0
 21 44  1  0  0  0  0
 22 45  1  0  0  0  0
 23 46  1  0  0  0  0
M  END
$$$$
