C7H5NS
APtclcactv05262212103D 0   0.00000     0.00000
 
 14 15  0  0  0  0  0  0  0  0999 V2000
   -1.7720    0.8715    0.0000 S   0  0  0  0  0  0  0  0  0  0  0  0
   -2.0989   -0.8033    0.0001 C   0  0  0  0  0  0  0  0  0  0  0  0
   -1.0208   -1.4920    0.0000 N   0  0  0  0  0  0  0  0  0  0  0  0
    0.1503   -0.8272   -0.0001 C   0  0  0  0  0  0  0  0  0  0  0  0
    1.4687   -1.3261   -0.0002 C   0  0  0  0  0  0  0  0  0  0  0  0
    2.5293   -0.4720    0.0001 C   0  0  0  0  0  0  0  0  0  0  0  0
    2.3345    0.9022    0.0001 C   0  0  0  0  0  0  0  0  0  0  0  0
    1.0582    1.4178   -0.0002 C   0  0  0  0  0  0  0  0  0  0  0  0
   -0.0391    0.5591   -0.0001 C   0  0  0  0  0  0  0  0  0  0  0  0
   -3.0917   -1.2287    0.0005 H   0  0  0  0  0  0  0  0  0  0  0  0
    1.6387   -2.3927   -0.0002 H   0  0  0  0  0  0  0  0  0  0  0  0
    3.5338   -0.8685    0.0008 H   0  0  0  0  0  0  0  0  0  0  0  0
    3.1851    1.5676    0.0008 H   0  0  0  0  0  0  0  0  0  0  0  0
    0.9074    2.4873   -0.0002 H   0  0  0  0  0  0  0  0  0  0  0  0
  1  2  1  0  0  0  0
  2  3  2  0  0  0  0
  3  4  1  0  0  0  0
  4  5  1  0  0  0  0
  5  6  2  0  0  0  0
  6  7  1  0  0  0  0
  7  8  2  0  0  0  0
  8  9  1  0  0  0  0
  1  9  1  0  0  0  0
  4  9  2  0  0  0  0
  2 10  1  0  0  0  0
  5 11  1  0  0  0  0
  6 12  1  0  0  0  0
  7 13  1  0  0  0  0
  8 14  1  0  0  0  0
M  END
$$$$
