C7H6O
APtclcactv05262212093D 0   0.00000     0.00000
 
 14 14  0  0  0  0  0  0  0  0999 V2000
   -2.7375   -0.3765   -0.0009 O   0  0  0  0  0  0  0  0  0  0  0  0
   -1.9390    0.5360   -0.0001 C   0  0  0  0  0  0  0  0  0  0  0  0
   -0.4953    0.2503   -0.0005 C   0  0  0  0  0  0  0  0  0  0  0  0
    0.4289    1.3000    0.0004 C   0  0  0  0  0  0  0  0  0  0  0  0
    1.7799    1.0242    0.0005 C   0  0  0  0  0  0  0  0  0  0  0  0
    2.2221   -0.2873   -0.0009 C   0  0  0  0  0  0  0  0  0  0  0  0
    1.3138   -1.3316   -0.0019 C   0  0  0  0  0  0  0  0  0  0  0  0
   -0.0405   -1.0722    0.0039 C   0  0  0  0  0  0  0  0  0  0  0  0
   -2.2872    1.5583   -0.0035 H   0  0  0  0  0  0  0  0  0  0  0  0
    0.0853    2.3239    0.0008 H   0  0  0  0  0  0  0  0  0  0  0  0
    2.4948    1.8337    0.0012 H   0  0  0  0  0  0  0  0  0  0  0  0
    3.2816   -0.4969   -0.0016 H   0  0  0  0  0  0  0  0  0  0  0  0
    1.6666   -2.3523   -0.0033 H   0  0  0  0  0  0  0  0  0  0  0  0
   -0.7480   -1.8881    0.0032 H   0  0  0  0  0  0  0  0  0  0  0  0
  1  2  2  0  0  0  0
  2  3  1  0  0  0  0
  3  4  1  0  0  0  0
  4  5  2  0  0  0  0
  5  6  1  0  0  0  0
  6  7  2  0  0  0  0
  7  8  1  0  0  0  0
  3  8  2  0  0  0  0
  2  9  1  0  0  0  0
  4 10  1  0  0  0  0
  5 11  1  0  0  0  0
  6 12  1  0  0  0  0
  7 13  1  0  0  0  0
  8 14  1  0  0  0  0
M  END
$$$$
