C10H10O2S2
APtclcactv05262212113D 0   0.00000     0.00000
 
 24 25  0  0  0  0  0  0  0  0999 V2000
   -3.8341   -0.3037    1.4094 C   0  0  0  0  0  0  0  0  0  0  0  0
   -3.0558    0.2601    0.2486 C   0  0  0  0  0  0  0  0  0  0  0  0
   -1.8281   -0.1399   -0.1505 C   0  0  0  0  0  0  0  0  0  0  0  0
   -1.4844    0.6574   -1.2720 C   0  0  0  0  0  0  0  0  0  0  0  0
   -2.5164    1.4914   -1.4892 C   0  0  0  0  0  0  0  0  0  0  0  0
   -3.4665    1.2452   -0.5728 O   0  0  0  0  0  0  0  0  0  0  0  0
   -0.8447   -1.4058    0.5811 S   0  0  0  0  0  0  0  0  0  0  0  0
    0.8448   -1.4062   -0.5799 S   0  0  0  0  0  0  0  0  0  0  0  0
    1.8286   -0.1405    0.1514 C   0  0  0  0  0  0  0  0  0  0  0  0
    3.0564    0.2590   -0.2478 C   0  0  0  0  0  0  0  0  0  0  0  0
    3.4650    1.2481    0.5697 O   0  0  0  0  0  0  0  0  0  0  0  0
    2.5175    1.4909    1.4896 C   0  0  0  0  0  0  0  0  0  0  0  0
    1.4829    0.6609    1.2694 C   0  0  0  0  0  0  0  0  0  0  0  0
    3.8348   -0.3057   -1.4081 C   0  0  0  0  0  0  0  0  0  0  0  0
   -3.5925    0.2543    2.3140 H   0  0  0  0  0  0  0  0  0  0  0  0
   -4.9016   -0.2207    1.2055 H   0  0  0  0  0  0  0  0  0  0  0  0
   -3.5711   -1.3523    1.5481 H   0  0  0  0  0  0  0  0  0  0  0  0
   -0.5687    0.6050   -1.8423 H   0  0  0  0  0  0  0  0  0  0  0  0
   -2.5735    2.2328   -2.2724 H   0  0  0  0  0  0  0  0  0  0  0  0
    2.5752    2.2318    2.2733 H   0  0  0  0  0  0  0  0  0  0  0  0
    0.5667    0.6098    1.8389 H   0  0  0  0  0  0  0  0  0  0  0  0
    3.5934    0.2518   -2.3132 H   0  0  0  0  0  0  0  0  0  0  0  0
    4.9023   -0.2228   -1.2042 H   0  0  0  0  0  0  0  0  0  0  0  0
    3.5715   -1.3543   -1.5463 H   0  0  0  0  0  0  0  0  0  0  0  0
  1  2  1  0  0  0  0
  2  3  2  0  0  0  0
  3  4  1  0  0  0  0
  4  5  2  0  0  0  0
  5  6  1  0  0  0  0
  2  6  1  0  0  0  0
  3  7  1  0  0  0  0
  7  8  1  0  0  0  0
  8  9  1  0  0  0  0
  9 10  2  0  0  0  0
 10 11  1  0  0  0  0
 11 12  1  0  0  0  0
 12 13  2  0  0  0  0
  9 13  1  0  0  0  0
 10 14  1  0  0  0  0
  1 15  1  0  0  0  0
  1 16  1  0  0  0  0
  1 17  1  0  0  0  0
  4 18  1  0  0  0  0
  5 19  1  0  0  0  0
 12 20  1  0  0  0  0
 13 21  1  0  0  0  0
 14 22  1  0  0  0  0
 14 23  1  0  0  0  0
 14 24  1  0  0  0  0
M  END
$$$$
