C13H18O
APtclcactv05262212103D 0   0.00000     0.00000
 
 32 32  0  0  0  0  0  0  0  0999 V2000
    3.8777    0.6699    1.0262 C   0  0  0  0  0  0  0  0  0  0  0  0
    3.1756    0.0978   -0.2069 C   0  0  0  0  0  0  0  0  0  0  0  0
    3.4141    1.0207   -1.4037 C   0  0  0  0  0  0  0  0  0  0  0  0
    3.7370   -1.2918   -0.5146 C   0  0  0  0  0  0  0  0  0  0  0  0
    1.6961   -0.0060    0.0604 C   0  0  0  0  0  0  0  0  0  0  0  0
    0.9672    1.1288    0.3632 C   0  0  0  0  0  0  0  0  0  0  0  0
   -0.3899    1.0336    0.6084 C   0  0  0  0  0  0  0  0  0  0  0  0
   -1.0182   -0.1963    0.5503 C   0  0  0  0  0  0  0  0  0  0  0  0
   -2.4975   -0.3002    0.8181 C   0  0  0  0  0  0  0  0  0  0  0  0
   -3.2664   -0.1321   -0.4940 C   0  0  0  0  0  0  0  0  0  0  0  0
   -4.7457   -0.2359   -0.2262 C   0  0  0  0  0  0  0  0  0  0  0  0
   -5.4860    0.6531   -0.5727 O   0  0  0  0  0  0  0  0  0  0  0  0
   -0.2895   -1.3310    0.2461 C   0  0  0  0  0  0  0  0  0  0  0  0
    1.0669   -1.2352   -0.0029 C   0  0  0  0  0  0  0  0  0  0  0  0
    3.4777    1.6599    1.2455 H   0  0  0  0  0  0  0  0  0  0  0  0
    3.7077    0.0124    1.8789 H   0  0  0  0  0  0  0  0  0  0  0  0
    4.9478    0.7450    0.8329 H   0  0  0  0  0  0  0  0  0  0  0  0
    4.4842    1.0958   -1.5970 H   0  0  0  0  0  0  0  0  0  0  0  0
    2.9140    0.6131   -2.2822 H   0  0  0  0  0  0  0  0  0  0  0  0
    3.0142    2.0107   -1.1845 H   0  0  0  0  0  0  0  0  0  0  0  0
    3.5670   -1.9493    0.3380 H   0  0  0  0  0  0  0  0  0  0  0  0
    3.2368   -1.6994   -1.3931 H   0  0  0  0  0  0  0  0  0  0  0  0
    4.8071   -1.2167   -0.7079 H   0  0  0  0  0  0  0  0  0  0  0  0
    1.4580    2.0898    0.4086 H   0  0  0  0  0  0  0  0  0  0  0  0
   -0.9593    1.9202    0.8457 H   0  0  0  0  0  0  0  0  0  0  0  0
   -2.7213   -1.2766    1.2478 H   0  0  0  0  0  0  0  0  0  0  0  0
   -2.7960    0.4813    1.5168 H   0  0  0  0  0  0  0  0  0  0  0  0
   -3.0426    0.8443   -0.9237 H   0  0  0  0  0  0  0  0  0  0  0  0
   -2.9679   -0.9136   -1.1927 H   0  0  0  0  0  0  0  0  0  0  0  0
   -5.1439   -1.1054    0.2756 H   0  0  0  0  0  0  0  0  0  0  0  0
   -0.7804   -2.2918    0.2003 H   0  0  0  0  0  0  0  0  0  0  0  0
    1.6362   -2.1216   -0.2406 H   0  0  0  0  0  0  0  0  0  0  0  0
  1  2  1  0  0  0  0
  2  3  1  0  0  0  0
  2  4  1  0  0  0  0
  2  5  1  0  0  0  0
  5  6  1  0  0  0  0
  6  7  2  0  0  0  0
  7  8  1  0  0  0  0
  8  9  1  0  0  0  0
  9 10  1  0  0  0  0
 10 11  1  0  0  0  0
 11 12  2  0  0  0  0
  8 13  2  0  0  0  0
 13 14  1  0  0  0  0
  5 14  2  0  0  0  0
  1 15  1  0  0  0  0
  1 16  1  0  0  0  0
  1 17  1  0  0  0  0
  3 18  1  0  0  0  0
  3 19  1  0  0  0  0
  3 20  1  0  0  0  0
  4 21  1  0  0  0  0
  4 22  1  0  0  0  0
  4 23  1  0  0  0  0
  6 24  1  0  0  0  0
  7 25  1  0  0  0  0
  9 26  1  0  0  0  0
  9 27  1  0  0  0  0
 10 28  1  0  0  0  0
 10 29  1  0  0  0  0
 11 30  1  0  0  0  0
 13 31  1  0  0  0  0
 14 32  1  0  0  0  0
M  END
$$$$
