C5H10O2
APtclcactv05262212103D 0   0.00000     0.00000
 
 17 16  0  0  0  0  0  0  0  0999 V2000
    3.6912   -0.3760   -0.0000 C   0  0  0  0  0  0  0  0  0  0  0  0
    2.4468    0.5141    0.0000 C   0  0  0  0  0  0  0  0  0  0  0  0
    1.1927   -0.3623   -0.0000 C   0  0  0  0  0  0  0  0  0  0  0  0
   -0.0516    0.5279   -0.0000 C   0  0  0  0  0  0  0  0  0  0  0  0
   -1.2418   -0.3039    0.0000 O   0  0  0  0  0  0  0  0  0  0  0  0
   -2.4264    0.3273   -0.0000 C   0  0  0  0  0  0  0  0  0  0  0  0
   -3.4516   -0.3121    0.0000 O   0  0  0  0  0  0  0  0  0  0  0  0
    4.5846    0.2484    0.0000 H   0  0  0  0  0  0  0  0  0  0  0  0
    3.6877   -1.0053    0.8900 H   0  0  0  0  0  0  0  0  0  0  0  0
    3.6877   -1.0053   -0.8900 H   0  0  0  0  0  0  0  0  0  0  0  0
    2.4503    1.1434    0.8900 H   0  0  0  0  0  0  0  0  0  0  0  0
    2.4503    1.1434   -0.8900 H   0  0  0  0  0  0  0  0  0  0  0  0
    1.1893   -0.9916   -0.8900 H   0  0  0  0  0  0  0  0  0  0  0  0
    1.1893   -0.9916    0.8900 H   0  0  0  0  0  0  0  0  0  0  0  0
   -0.0482    1.1572    0.8900 H   0  0  0  0  0  0  0  0  0  0  0  0
   -0.0482    1.1572   -0.8900 H   0  0  0  0  0  0  0  0  0  0  0  0
   -2.4631    1.4066   -0.0000 H   0  0  0  0  0  0  0  0  0  0  0  0
  1  2  1  0  0  0  0
  2  3  1  0  0  0  0
  3  4  1  0  0  0  0
  4  5  1  0  0  0  0
  5  6  1  0  0  0  0
  6  7  2  0  0  0  0
  1  8  1  0  0  0  0
  1  9  1  0  0  0  0
  1 10  1  0  0  0  0
  2 11  1  0  0  0  0
  2 12  1  0  0  0  0
  3 13  1  0  0  0  0
  3 14  1  0  0  0  0
  4 15  1  0  0  0  0
  4 16  1  0  0  0  0
  6 17  1  0  0  0  0
M  END
$$$$
