C4H8O2
APtclcactv05262212093D 0   0.00000     0.00000
 
 14 13  0  0  0  0  0  0  0  0999 V2000
    2.7930    0.2384    0.0000 C   0  0  0  0  0  0  0  0  0  0  0  0
    1.4154   -0.4272   -0.0000 C   0  0  0  0  0  0  0  0  0  0  0  0
    0.3286    0.6497    0.0000 C   0  0  0  0  0  0  0  0  0  0  0  0
   -1.0282   -0.0060    0.0000 C   0  0  0  0  0  0  0  0  0  0  0  0
   -2.1383    0.7487   -0.0000 O   0  0  0  0  0  0  0  0  0  0  0  0
   -1.1169   -1.2110    0.0000 O   0  0  0  0  0  0  0  0  0  0  0  0
    2.8966    0.8592    0.8900 H   0  0  0  0  0  0  0  0  0  0  0  0
    3.5673   -0.5288    0.0000 H   0  0  0  0  0  0  0  0  0  0  0  0
    2.8966    0.8592   -0.8900 H   0  0  0  0  0  0  0  0  0  0  0  0
    1.3119   -1.0480   -0.8900 H   0  0  0  0  0  0  0  0  0  0  0  0
    1.3119   -1.0480    0.8900 H   0  0  0  0  0  0  0  0  0  0  0  0
    0.4322    1.2704    0.8900 H   0  0  0  0  0  0  0  0  0  0  0  0
    0.4322    1.2704   -0.8900 H   0  0  0  0  0  0  0  0  0  0  0  0
   -2.9858    0.2830    0.0000 H   0  0  0  0  0  0  0  0  0  0  0  0
  1  2  1  0  0  0  0
  2  3  1  0  0  0  0
  3  4  1  0  0  0  0
  4  5  1  0  0  0  0
  4  6  2  0  0  0  0
  1  7  1  0  0  0  0
  1  8  1  0  0  0  0
  1  9  1  0  0  0  0
  2 10  1  0  0  0  0
  2 11  1  0  0  0  0
  3 12  1  0  0  0  0
  3 13  1  0  0  0  0
  5 14  1  0  0  0  0
M  END
$$$$
