C11H20O4
APtclcactv05262212113D 0   0.00000     0.00000
 
 35 34  0  0  0  0  0  0  0  0999 V2000
    6.8760   -0.0427   -0.6450 C   0  0  0  0  0  0  0  0  0  0  0  0
    5.6212    0.6892   -0.1650 C   0  0  0  0  0  0  0  0  0  0  0  0
    4.3999   -0.2120   -0.3577 C   0  0  0  0  0  0  0  0  0  0  0  0
    3.1450    0.5199    0.1223 C   0  0  0  0  0  0  0  0  0  0  0  0
    1.9860   -0.3354   -0.0606 O   0  0  0  0  0  0  0  0  0  0  0  0
    0.7967    0.1616    0.3139 C   0  0  0  0  0  0  0  0  0  0  0  0
    0.7264    1.2745    0.7792 O   0  0  0  0  0  0  0  0  0  0  0  0
   -0.4509   -0.6684    0.1541 C   0  0  0  0  0  0  0  0  0  0  0  0
   -0.3681   -1.8944    1.0657 C   0  0  0  0  0  0  0  0  0  0  0  0
   -1.6108    0.1265    0.5161 O   0  0  0  0  0  0  0  0  0  0  0  0
   -2.7648   -0.1608   -0.1063 C   0  0  0  0  0  0  0  0  0  0  0  0
   -2.8045   -1.0471   -0.9265 O   0  0  0  0  0  0  0  0  0  0  0  0
   -4.0110    0.6221    0.2179 C   0  0  0  0  0  0  0  0  0  0  0  0
   -5.1761    0.0979   -0.6239 C   0  0  0  0  0  0  0  0  0  0  0  0
   -6.4413    0.8928   -0.2947 C   0  0  0  0  0  0  0  0  0  0  0  0
    7.7461    0.5993   -0.5077 H   0  0  0  0  0  0  0  0  0  0  0  0
    7.0056   -0.9585   -0.0681 H   0  0  0  0  0  0  0  0  0  0  0  0
    6.7704   -0.2905   -1.7012 H   0  0  0  0  0  0  0  0  0  0  0  0
    5.7268    0.9370    0.8912 H   0  0  0  0  0  0  0  0  0  0  0  0
    5.4916    1.6049   -0.7418 H   0  0  0  0  0  0  0  0  0  0  0  0
    4.2943   -0.4598   -1.4139 H   0  0  0  0  0  0  0  0  0  0  0  0
    4.5295   -1.1277    0.2191 H   0  0  0  0  0  0  0  0  0  0  0  0
    3.2506    0.7677    1.1785 H   0  0  0  0  0  0  0  0  0  0  0  0
    3.0155    1.4357   -0.4545 H   0  0  0  0  0  0  0  0  0  0  0  0
   -0.5416   -0.9921   -0.8828 H   0  0  0  0  0  0  0  0  0  0  0  0
   -1.2704   -2.4948    0.9501 H   0  0  0  0  0  0  0  0  0  0  0  0
    0.5026   -2.4911    0.7939 H   0  0  0  0  0  0  0  0  0  0  0  0
   -0.2774   -1.5707    2.1026 H   0  0  0  0  0  0  0  0  0  0  0  0
   -4.2469    0.5079    1.2759 H   0  0  0  0  0  0  0  0  0  0  0  0
   -3.8464    1.6761   -0.0059 H   0  0  0  0  0  0  0  0  0  0  0  0
   -4.9402    0.2122   -1.6819 H   0  0  0  0  0  0  0  0  0  0  0  0
   -5.3407   -0.9561   -0.4001 H   0  0  0  0  0  0  0  0  0  0  0  0
   -7.2713    0.5194   -0.8944 H   0  0  0  0  0  0  0  0  0  0  0  0
   -6.6772    0.7786    0.7633 H   0  0  0  0  0  0  0  0  0  0  0  0
   -6.2767    1.9468   -0.5185 H   0  0  0  0  0  0  0  0  0  0  0  0
  1  2  1  0  0  0  0
  2  3  1  0  0  0  0
  3  4  1  0  0  0  0
  4  5  1  0  0  0  0
  5  6  1  0  0  0  0
  6  7  2  0  0  0  0
  6  8  1  0  0  0  0
  8  9  1  0  0  0  0
  8 10  1  0  0  0  0
 10 11  1  0  0  0  0
 11 12  2  0  0  0  0
 11 13  1  0  0  0  0
 13 14  1  0  0  0  0
 14 15  1  0  0  0  0
  1 16  1  0  0  0  0
  1 17  1  0  0  0  0
  1 18  1  0  0  0  0
  2 19  1  0  0  0  0
  2 20  1  0  0  0  0
  3 21  1  0  0  0  0
  3 22  1  0  0  0  0
  4 23  1  0  0  0  0
  4 24  1  0  0  0  0
  8 25  1  0  0  0  0
  9 26  1  0  0  0  0
  9 27  1  0  0  0  0
  9 28  1  0  0  0  0
 13 29  1  0  0  0  0
 13 30  1  0  0  0  0
 14 31  1  0  0  0  0
 14 32  1  0  0  0  0
 15 33  1  0  0  0  0
 15 34  1  0  0  0  0
 15 35  1  0  0  0  0
M  END
$$$$
