C10H16O
APtclcactv05262212103D 0   0.00000     0.00000
 
 27 28  0  0  0  0  0  0  0  0999 V2000
    2.2770    0.6920    0.0763 C   0  0  0  0  0  0  0  0  0  0  0  0
    0.9109    0.3057   -0.4944 C   0  0  0  0  0  0  0  0  0  0  0  0
    0.6316    1.0106   -1.8233 C   0  0  0  0  0  0  0  0  0  0  0  0
    0.7353   -1.2509   -0.6034 C   0  0  0  0  0  0  0  0  0  0  0  0
    0.8337   -1.6568    0.8995 C   0  0  0  0  0  0  0  0  0  0  0  0
    0.1774   -0.4819    1.6606 C   0  0  0  0  0  0  0  0  0  0  0  0
   -0.2454    0.5239    0.5439 C   0  0  0  0  0  0  0  0  0  0  0  0
   -0.4825    1.9652    0.9991 C   0  0  0  0  0  0  0  0  0  0  0  0
   -1.4127   -0.1665   -0.1755 C   0  0  0  0  0  0  0  0  0  0  0  0
   -2.5782    0.1487   -0.1497 O   0  0  0  0  0  0  0  0  0  0  0  0
   -0.7881   -1.3356   -0.9265 C   0  0  0  0  0  0  0  0  0  0  0  0
    2.3043    1.7664    0.2577 H   0  0  0  0  0  0  0  0  0  0  0  0
    2.4426    0.1609    1.0136 H   0  0  0  0  0  0  0  0  0  0  0  0
    3.0573    0.4239   -0.6360 H   0  0  0  0  0  0  0  0  0  0  0  0
    1.4035    0.7441   -2.5452 H   0  0  0  0  0  0  0  0  0  0  0  0
   -0.3424    0.7002   -2.2015 H   0  0  0  0  0  0  0  0  0  0  0  0
    0.6346    2.0897   -1.6698 H   0  0  0  0  0  0  0  0  0  0  0  0
    1.4106   -1.7684   -1.2847 H   0  0  0  0  0  0  0  0  0  0  0  0
    0.2855   -2.5813    1.0807 H   0  0  0  0  0  0  0  0  0  0  0  0
    1.8767   -1.7673    1.1963 H   0  0  0  0  0  0  0  0  0  0  0  0
   -0.6970   -0.8274    2.2121 H   0  0  0  0  0  0  0  0  0  0  0  0
    0.8957   -0.0184    2.3368 H   0  0  0  0  0  0  0  0  0  0  0  0
    0.4279    2.3575    1.4525 H   0  0  0  0  0  0  0  0  0  0  0  0
   -0.7533    2.5780    0.1393 H   0  0  0  0  0  0  0  0  0  0  0  0
   -1.2909    1.9871    1.7300 H   0  0  0  0  0  0  0  0  0  0  0  0
   -0.9534   -1.2293   -1.9987 H   0  0  0  0  0  0  0  0  0  0  0  0
   -1.2008   -2.2793   -0.5700 H   0  0  0  0  0  0  0  0  0  0  0  0
  1  2  1  0  0  0  0
  2  3  1  0  0  0  0
  2  4  1  0  0  0  0
  4  5  1  0  0  0  0
  5  6  1  0  0  0  0
  6  7  1  0  0  0  0
  2  7  1  0  0  0  0
  7  8  1  0  0  0  0
  7  9  1  0  0  0  0
  9 10  2  0  0  0  0
  9 11  1  0  0  0  0
  4 11  1  0  0  0  0
  1 12  1  0  0  0  0
  1 13  1  0  0  0  0
  1 14  1  0  0  0  0
  3 15  1  0  0  0  0
  3 16  1  0  0  0  0
  3 17  1  0  0  0  0
  4 18  1  0  0  0  0
  5 19  1  0  0  0  0
  5 20  1  0  0  0  0
  6 21  1  0  0  0  0
  6 22  1  0  0  0  0
  8 23  1  0  0  0  0
  8 24  1  0  0  0  0
  8 25  1  0  0  0  0
 11 26  1  0  0  0  0
 11 27  1  0  0  0  0
M  END
$$$$
