C6H8O3
APtclcactv05262212103D 0   0.00000     0.00000
 
 17 17  0  0  0  0  0  0  0  0999 V2000
    2.0482   -1.3192   -0.6644 C   0  0  0  0  0  0  0  0  0  0  0  0
    1.0809   -0.8159    0.4088 C   0  0  0  0  0  0  0  0  0  0  0  0
    0.7692    0.6451    0.1838 C   0  0  0  0  0  0  0  0  0  0  0  0
   -0.5460    0.7345   -0.0207 C   0  0  0  0  0  0  0  0  0  0  0  0
   -1.1438   -0.6058    0.0557 C   0  0  0  0  0  0  0  0  0  0  0  0
   -2.3251   -0.8522   -0.0876 O   0  0  0  0  0  0  0  0  0  0  0  0
   -0.1886   -1.5197    0.3083 O   0  0  0  0  0  0  0  0  0  0  0  0
   -1.2274    1.8865   -0.2616 O   0  0  0  0  0  0  0  0  0  0  0  0
    1.7558    1.7843    0.1897 C   0  0  0  0  0  0  0  0  0  0  0  0
    2.9735   -0.7450   -0.6177 H   0  0  0  0  0  0  0  0  0  0  0  0
    2.2656   -2.3733   -0.4921 H   0  0  0  0  0  0  0  0  0  0  0  0
    1.5946   -1.1979   -1.6481 H   0  0  0  0  0  0  0  0  0  0  0  0
    1.5128   -0.9590    1.3993 H   0  0  0  0  0  0  0  0  0  0  0  0
   -2.1782    1.7623   -0.3864 H   0  0  0  0  0  0  0  0  0  0  0  0
    2.1425    1.9352   -0.8182 H   0  0  0  0  0  0  0  0  0  0  0  0
    1.2589    2.6935    0.5281 H   0  0  0  0  0  0  0  0  0  0  0  0
    2.5795    1.5480    0.8633 H   0  0  0  0  0  0  0  0  0  0  0  0
  1  2  1  0  0  0  0
  2  3  1  0  0  0  0
  3  4  2  0  0  0  0
  4  5  1  0  0  0  0
  5  6  2  0  0  0  0
  5  7  1  0  0  0  0
  2  7  1  0  0  0  0
  4  8  1  0  0  0  0
  3  9  1  0  0  0  0
  1 10  1  0  0  0  0
  1 11  1  0  0  0  0
  1 12  1  0  0  0  0
  2 13  1  0  0  0  0
  8 14  1  0  0  0  0
  9 15  1  0  0  0  0
  9 16  1  0  0  0  0
  9 17  1  0  0  0  0
M  END
$$$$
