C4H6O2
APtclcactv05262212103D 0   0.00000     0.00000
 
 12 11  0  0  0  0  0  0  0  0999 V2000
    1.8058   -0.8262   -0.0000 C   0  0  0  0  0  0  0  0  0  0  0  0
    0.7126    0.2111    0.0000 C   0  0  0  0  0  0  0  0  0  0  0  0
    0.9945    1.3856    0.0000 O   0  0  0  0  0  0  0  0  0  0  0  0
   -0.7126   -0.2111    0.0000 C   0  0  0  0  0  0  0  0  0  0  0  0
   -1.8058    0.8262   -0.0000 C   0  0  0  0  0  0  0  0  0  0  0  0
   -0.9945   -1.3856    0.0000 O   0  0  0  0  0  0  0  0  0  0  0  0
    2.0694   -1.0763    1.0277 H   0  0  0  0  0  0  0  0  0  0  0  0
    1.4568   -1.7219   -0.5138 H   0  0  0  0  0  0  0  0  0  0  0  0
    2.6819   -0.4307   -0.5138 H   0  0  0  0  0  0  0  0  0  0  0  0
   -1.3620    1.8217   -0.0000 H   0  0  0  0  0  0  0  0  0  0  0  0
   -2.4230    0.7035   -0.8900 H   0  0  0  0  0  0  0  0  0  0  0  0
   -2.4230    0.7035    0.8900 H   0  0  0  0  0  0  0  0  0  0  0  0
  1  2  1  0  0  0  0
  2  3  2  0  0  0  0
  2  4  1  0  0  0  0
  4  5  1  0  0  0  0
  4  6  2  0  0  0  0
  1  7  1  0  0  0  0
  1  8  1  0  0  0  0
  1  9  1  0  0  0  0
  5 10  1  0  0  0  0
  5 11  1  0  0  0  0
  5 12  1  0  0  0  0
M  END
$$$$
