C12H10O
APtclcactv05262212103D 0   0.00000     0.00000
 
 23 24  0  0  0  0  0  0  0  0999 V2000
   -0.0568   -1.2935   -0.0140 O   0  0  0  0  0  0  0  0  0  0  0  0
   -1.1899   -0.5435   -0.0058 C   0  0  0  0  0  0  0  0  0  0  0  0
   -1.1067    0.8415   -0.0018 C   0  0  0  0  0  0  0  0  0  0  0  0
   -2.2601    1.6016    0.0061 C   0  0  0  0  0  0  0  0  0  0  0  0
   -3.4969    0.9833    0.0099 C   0  0  0  0  0  0  0  0  0  0  0  0
   -3.5827   -0.3967    0.0059 C   0  0  0  0  0  0  0  0  0  0  0  0
   -2.4323   -1.1614   -0.0073 C   0  0  0  0  0  0  0  0  0  0  0  0
    1.1374   -0.6451   -0.0064 C   0  0  0  0  0  0  0  0  0  0  0  0
    1.7479   -0.3272    1.1984 C   0  0  0  0  0  0  0  0  0  0  0  0
    2.9621    0.3315    1.2033 C   0  0  0  0  0  0  0  0  0  0  0  0
    3.5691    0.6740    0.0091 C   0  0  0  0  0  0  0  0  0  0  0  0
    2.9628    0.3583   -1.1929 C   0  0  0  0  0  0  0  0  0  0  0  0
    1.7512   -0.3050   -1.2034 C   0  0  0  0  0  0  0  0  0  0  0  0
   -0.1409    1.3249   -0.0044 H   0  0  0  0  0  0  0  0  0  0  0  0
   -2.1958    2.6796    0.0096 H   0  0  0  0  0  0  0  0  0  0  0  0
   -4.3975    1.5793    0.0164 H   0  0  0  0  0  0  0  0  0  0  0  0
   -4.5499   -0.8772    0.0089 H   0  0  0  0  0  0  0  0  0  0  0  0
   -2.4999   -2.2393   -0.0108 H   0  0  0  0  0  0  0  0  0  0  0  0
    1.2741   -0.5941    2.1315 H   0  0  0  0  0  0  0  0  0  0  0  0
    3.4376    0.5795    2.1408 H   0  0  0  0  0  0  0  0  0  0  0  0
    4.5182    1.1893    0.0151 H   0  0  0  0  0  0  0  0  0  0  0  0
    3.4390    0.6270   -2.1243 H   0  0  0  0  0  0  0  0  0  0  0  0
    1.2782   -0.5516   -2.1425 H   0  0  0  0  0  0  0  0  0  0  0  0
  1  2  1  0  0  0  0
  2  3  1  0  0  0  0
  3  4  2  0  0  0  0
  4  5  1  0  0  0  0
  5  6  2  0  0  0  0
  6  7  1  0  0  0  0
  2  7  2  0  0  0  0
  1  8  1  0  0  0  0
  8  9  1  0  0  0  0
  9 10  2  0  0  0  0
 10 11  1  0  0  0  0
 11 12  2  0  0  0  0
 12 13  1  0  0  0  0
  8 13  2  0  0  0  0
  3 14  1  0  0  0  0
  4 15  1  0  0  0  0
  5 16  1  0  0  0  0
  6 17  1  0  0  0  0
  7 18  1  0  0  0  0
  9 19  1  0  0  0  0
 10 20  1  0  0  0  0
 11 21  1  0  0  0  0
 12 22  1  0  0  0  0
 13 23  1  0  0  0  0
M  END
$$$$
