C13H20O
APtclcactv05262212113D 0   0.00000     0.00000
 
 34 34  0  0  0  0  0  0  0  0999 V2000
    4.2320   -0.4613    0.9747 C   0  0  0  0  0  0  0  0  0  0  0  0
    3.1560    0.1215    0.0952 C   0  0  0  0  0  0  0  0  0  0  0  0
    3.4547    0.8617   -0.8204 O   0  0  0  0  0  0  0  0  0  0  0  0
    1.8045   -0.1919    0.3348 C   0  0  0  0  0  0  0  0  0  0  0  0
    0.8353    0.3331   -0.4575 C   0  0  0  0  0  0  0  0  0  0  0  0
   -0.5629   -0.0314   -0.2403 C   0  0  0  0  0  0  0  0  0  0  0  0
   -0.8884   -1.3115   -0.2895 C   0  0  0  0  0  0  0  0  0  0  0  0
    0.2052   -2.3133   -0.5571 C   0  0  0  0  0  0  0  0  0  0  0  0
   -2.2856   -1.8239   -0.0934 C   0  0  0  0  0  0  0  0  0  0  0  0
   -3.1507   -0.7522    0.5729 C   0  0  0  0  0  0  0  0  0  0  0  0
   -2.9753    0.5631   -0.1958 C   0  0  0  0  0  0  0  0  0  0  0  0
   -1.5473    1.0686    0.0321 C   0  0  0  0  0  0  0  0  0  0  0  0
   -1.4024    1.5443    1.4790 C   0  0  0  0  0  0  0  0  0  0  0  0
   -1.2660    2.2377   -0.9139 C   0  0  0  0  0  0  0  0  0  0  0  0
    5.2069   -0.1082    0.6385 H   0  0  0  0  0  0  0  0  0  0  0  0
    4.0678   -0.1481    2.0057 H   0  0  0  0  0  0  0  0  0  0  0  0
    4.1995   -1.5493    0.9160 H   0  0  0  0  0  0  0  0  0  0  0  0
    1.5389   -0.8500    1.1489 H   0  0  0  0  0  0  0  0  0  0  0  0
    1.0976    1.0202   -1.2483 H   0  0  0  0  0  0  0  0  0  0  0  0
    0.6592   -2.6164    0.3863 H   0  0  0  0  0  0  0  0  0  0  0  0
   -0.2161   -3.1868   -1.0548 H   0  0  0  0  0  0  0  0  0  0  0  0
    0.9634   -1.8613   -1.1966 H   0  0  0  0  0  0  0  0  0  0  0  0
   -2.7142   -2.0841   -1.0612 H   0  0  0  0  0  0  0  0  0  0  0  0
   -2.2595   -2.7116    0.5385 H   0  0  0  0  0  0  0  0  0  0  0  0
   -4.1971   -1.0563    0.5442 H   0  0  0  0  0  0  0  0  0  0  0  0
   -2.8342   -0.6169    1.6071 H   0  0  0  0  0  0  0  0  0  0  0  0
   -3.1418    0.3908   -1.2591 H   0  0  0  0  0  0  0  0  0  0  0  0
   -3.6870    1.3012    0.1742 H   0  0  0  0  0  0  0  0  0  0  0  0
   -1.6079    0.7154    2.1563 H   0  0  0  0  0  0  0  0  0  0  0  0
   -0.3868    1.9044    1.6431 H   0  0  0  0  0  0  0  0  0  0  0  0
   -2.1093    2.3521    1.6684 H   0  0  0  0  0  0  0  0  0  0  0  0
   -2.0317    3.0025   -0.7839 H   0  0  0  0  0  0  0  0  0  0  0  0
   -0.2875    2.6610   -0.6874 H   0  0  0  0  0  0  0  0  0  0  0  0
   -1.2785    1.8825   -1.9443 H   0  0  0  0  0  0  0  0  0  0  0  0
  1  2  1  0  0  0  0
  2  3  2  0  0  0  0
  2  4  1  0  0  0  0
  4  5  2  0  0  0  0
  5  6  1  0  0  0  0
  6  7  2  0  0  0  0
  7  8  1  0  0  0  0
  7  9  1  0  0  0  0
  9 10  1  0  0  0  0
 10 11  1  0  0  0  0
 11 12  1  0  0  0  0
  6 12  1  0  0  0  0
 12 13  1  0  0  0  0
 12 14  1  0  0  0  0
  1 15  1  0  0  0  0
  1 16  1  0  0  0  0
  1 17  1  0  0  0  0
  4 18  1  0  0  0  0
  5 19  1  0  0  0  0
  8 20  1  0  0  0  0
  8 21  1  0  0  0  0
  8 22  1  0  0  0  0
  9 23  1  0  0  0  0
  9 24  1  0  0  0  0
 10 25  1  0  0  0  0
 10 26  1  0  0  0  0
 11 27  1  0  0  0  0
 11 28  1  0  0  0  0
 13 29  1  0  0  0  0
 13 30  1  0  0  0  0
 13 31  1  0  0  0  0
 14 32  1  0  0  0  0
 14 33  1  0  0  0  0
 14 34  1  0  0  0  0
M  END
$$$$
