C2H6S
APtclcactv05262212103D 0   0.00000     0.00000
 
  9  8  0  0  0  0  0  0  0  0999 V2000
    1.7039   -0.3650   -0.0000 C   0  0  0  0  0  0  0  0  0  0  0  0
    0.5821    0.6755    0.0000 C   0  0  0  0  0  0  0  0  0  0  0  0
   -1.0243   -0.1671   -0.0000 S   0  0  0  0  0  0  0  0  0  0  0  0
    1.6208   -0.9888    0.8900 H   0  0  0  0  0  0  0  0  0  0  0  0
    1.6208   -0.9888   -0.8900 H   0  0  0  0  0  0  0  0  0  0  0  0
    2.6691    0.1414   -0.0000 H   0  0  0  0  0  0  0  0  0  0  0  0
    0.6652    1.2993    0.8900 H   0  0  0  0  0  0  0  0  0  0  0  0
    0.6652    1.2993   -0.8900 H   0  0  0  0  0  0  0  0  0  0  0  0
   -1.9010    0.8529   -0.0000 H   0  0  0  0  0  0  0  0  0  0  0  0
  1  2  1  0  0  0  0
  2  3  1  0  0  0  0
  1  4  1  0  0  0  0
  1  5  1  0  0  0  0
  1  6  1  0  0  0  0
  2  7  1  0  0  0  0
  2  8  1  0  0  0  0
  3  9  1  0  0  0  0
M  END
$$$$
