C6H12O2
APtclcactv05262212103D 0   0.00000     0.00000
 
 20 19  0  0  0  0  0  0  0  0999 V2000
    3.7467   -0.4839   -0.0000 C   0  0  0  0  0  0  0  0  0  0  0  0
    2.4438    0.3181    0.0000 C   0  0  0  0  0  0  0  0  0  0  0  0
    1.2533   -0.6430    0.0000 C   0  0  0  0  0  0  0  0  0  0  0  0
   -0.0300    0.1470    0.0000 C   0  0  0  0  0  0  0  0  0  0  0  0
    0.0040    1.3547    0.0000 O   0  0  0  0  0  0  0  0  0  0  0  0
   -1.2109   -0.4912    0.0000 O   0  0  0  0  0  0  0  0  0  0  0  0
   -2.4059    0.3336   -0.0000 C   0  0  0  0  0  0  0  0  0  0  0  0
   -3.6450   -0.5639    0.0000 C   0  0  0  0  0  0  0  0  0  0  0  0
    4.5949    0.2008    0.0000 H   0  0  0  0  0  0  0  0  0  0  0  0
    3.7868   -1.1120    0.8900 H   0  0  0  0  0  0  0  0  0  0  0  0
    3.7868   -1.1120   -0.8900 H   0  0  0  0  0  0  0  0  0  0  0  0
    2.4037    0.9461    0.8900 H   0  0  0  0  0  0  0  0  0  0  0  0
    2.4037    0.9461   -0.8900 H   0  0  0  0  0  0  0  0  0  0  0  0
    1.2934   -1.2710   -0.8900 H   0  0  0  0  0  0  0  0  0  0  0  0
    1.2934   -1.2710    0.8900 H   0  0  0  0  0  0  0  0  0  0  0  0
   -2.4131    0.9629    0.8900 H   0  0  0  0  0  0  0  0  0  0  0  0
   -2.4131    0.9629   -0.8900 H   0  0  0  0  0  0  0  0  0  0  0  0
   -4.5421    0.0553   -0.0000 H   0  0  0  0  0  0  0  0  0  0  0  0
   -3.6379   -1.1931   -0.8900 H   0  0  0  0  0  0  0  0  0  0  0  0
   -3.6379   -1.1931    0.8900 H   0  0  0  0  0  0  0  0  0  0  0  0
  1  2  1  0  0  0  0
  2  3  1  0  0  0  0
  3  4  1  0  0  0  0
  4  5  2  0  0  0  0
  4  6  1  0  0  0  0
  6  7  1  0  0  0  0
  7  8  1  0  0  0  0
  1  9  1  0  0  0  0
  1 10  1  0  0  0  0
  1 11  1  0  0  0  0
  2 12  1  0  0  0  0
  2 13  1  0  0  0  0
  3 14  1  0  0  0  0
  3 15  1  0  0  0  0
  7 16  1  0  0  0  0
  7 17  1  0  0  0  0
  8 18  1  0  0  0  0
  8 19  1  0  0  0  0
  8 20  1  0  0  0  0
M  END
$$$$
