C12H24O2
APtclcactv05262212103D 0   0.00000     0.00000
 
 38 37  0  0  0  0  0  0  0  0999 V2000
    7.7896    0.2797    0.0000 C   0  0  0  0  0  0  0  0  0  0  0  0
    6.5046   -0.5508   -0.0000 C   0  0  0  0  0  0  0  0  0  0  0  0
    5.2933    0.3838    0.0000 C   0  0  0  0  0  0  0  0  0  0  0  0
    4.0083   -0.4468   -0.0000 C   0  0  0  0  0  0  0  0  0  0  0  0
    2.7970    0.4879    0.0000 C   0  0  0  0  0  0  0  0  0  0  0  0
    1.5120   -0.3427   -0.0000 C   0  0  0  0  0  0  0  0  0  0  0  0
    0.3006    0.5919   -0.0000 C   0  0  0  0  0  0  0  0  0  0  0  0
   -0.9843   -0.2386   -0.0000 C   0  0  0  0  0  0  0  0  0  0  0  0
   -2.1957    0.6960   -0.0000 C   0  0  0  0  0  0  0  0  0  0  0  0
   -3.4613   -0.1221   -0.0000 C   0  0  0  0  0  0  0  0  0  0  0  0
   -3.4007   -1.3288    0.0000 O   0  0  0  0  0  0  0  0  0  0  0  0
   -4.6560    0.4899   -0.0000 O   0  0  0  0  0  0  0  0  0  0  0  0
   -5.8325   -0.3610    0.0000 C   0  0  0  0  0  0  0  0  0  0  0  0
   -7.0911    0.5089   -0.0000 C   0  0  0  0  0  0  0  0  0  0  0  0
    7.8158    0.9085    0.8900 H   0  0  0  0  0  0  0  0  0  0  0  0
    8.6526   -0.3861    0.0000 H   0  0  0  0  0  0  0  0  0  0  0  0
    7.8158    0.9085   -0.8900 H   0  0  0  0  0  0  0  0  0  0  0  0
    6.4784   -1.1796   -0.8900 H   0  0  0  0  0  0  0  0  0  0  0  0
    6.4784   -1.1796    0.8900 H   0  0  0  0  0  0  0  0  0  0  0  0
    5.3195    1.0125    0.8900 H   0  0  0  0  0  0  0  0  0  0  0  0
    5.3195    1.0125   -0.8900 H   0  0  0  0  0  0  0  0  0  0  0  0
    3.9821   -1.0755   -0.8900 H   0  0  0  0  0  0  0  0  0  0  0  0
    3.9821   -1.0755    0.8900 H   0  0  0  0  0  0  0  0  0  0  0  0
    2.8232    1.1166    0.8900 H   0  0  0  0  0  0  0  0  0  0  0  0
    2.8232    1.1166   -0.8900 H   0  0  0  0  0  0  0  0  0  0  0  0
    1.4858   -0.9715   -0.8900 H   0  0  0  0  0  0  0  0  0  0  0  0
    1.4858   -0.9715    0.8900 H   0  0  0  0  0  0  0  0  0  0  0  0
    0.3269    1.2207    0.8900 H   0  0  0  0  0  0  0  0  0  0  0  0
    0.3269    1.2207   -0.8900 H   0  0  0  0  0  0  0  0  0  0  0  0
   -1.0105   -0.8674   -0.8900 H   0  0  0  0  0  0  0  0  0  0  0  0
   -1.0105   -0.8674    0.8900 H   0  0  0  0  0  0  0  0  0  0  0  0
   -2.1695    1.3248    0.8900 H   0  0  0  0  0  0  0  0  0  0  0  0
   -2.1695    1.3248   -0.8900 H   0  0  0  0  0  0  0  0  0  0  0  0
   -5.8258   -0.9903   -0.8900 H   0  0  0  0  0  0  0  0  0  0  0  0
   -5.8258   -0.9903    0.8900 H   0  0  0  0  0  0  0  0  0  0  0  0
   -7.0978    1.1382    0.8900 H   0  0  0  0  0  0  0  0  0  0  0  0
   -7.0978    1.1382   -0.8900 H   0  0  0  0  0  0  0  0  0  0  0  0
   -7.9743   -0.1299    0.0000 H   0  0  0  0  0  0  0  0  0  0  0  0
  1  2  1  0  0  0  0
  2  3  1  0  0  0  0
  3  4  1  0  0  0  0
  4  5  1  0  0  0  0
  5  6  1  0  0  0  0
  6  7  1  0  0  0  0
  7  8  1  0  0  0  0
  8  9  1  0  0  0  0
  9 10  1  0  0  0  0
 10 11  2  0  0  0  0
 10 12  1  0  0  0  0
 12 13  1  0  0  0  0
 13 14  1  0  0  0  0
  1 15  1  0  0  0  0
  1 16  1  0  0  0  0
  1 17  1  0  0  0  0
  2 18  1  0  0  0  0
  2 19  1  0  0  0  0
  3 20  1  0  0  0  0
  3 21  1  0  0  0  0
  4 22  1  0  0  0  0
  4 23  1  0  0  0  0
  5 24  1  0  0  0  0
  5 25  1  0  0  0  0
  6 26  1  0  0  0  0
  6 27  1  0  0  0  0
  7 28  1  0  0  0  0
  7 29  1  0  0  0  0
  8 30  1  0  0  0  0
  8 31  1  0  0  0  0
  9 32  1  0  0  0  0
  9 33  1  0  0  0  0
 13 34  1  0  0  0  0
 13 35  1  0  0  0  0
 14 36  1  0  0  0  0
 14 37  1  0  0  0  0
 14 38  1  0  0  0  0
M  END
$$$$
