C8H16O2
APtclcactv05262212113D 0   0.00000     0.00000
 
 26 25  0  0  0  0  0  0  0  0999 V2000
    5.1351   -0.3482   -0.0000 C   0  0  0  0  0  0  0  0  0  0  0  0
    3.8333    0.4557    0.0000 C   0  0  0  0  0  0  0  0  0  0  0  0
    2.6415   -0.5037   -0.0000 C   0  0  0  0  0  0  0  0  0  0  0  0
    1.3397    0.3002    0.0000 C   0  0  0  0  0  0  0  0  0  0  0  0
    0.1478   -0.6591    0.0000 C   0  0  0  0  0  0  0  0  0  0  0  0
   -1.1344    0.1327    0.0000 C   0  0  0  0  0  0  0  0  0  0  0  0
   -1.0986    1.3404   -0.0000 O   0  0  0  0  0  0  0  0  0  0  0  0
   -2.3162   -0.5037    0.0000 O   0  0  0  0  0  0  0  0  0  0  0  0
   -3.5100    0.3228   -0.0000 C   0  0  0  0  0  0  0  0  0  0  0  0
   -4.7504   -0.5729    0.0000 C   0  0  0  0  0  0  0  0  0  0  0  0
    5.9842    0.3352    0.0000 H   0  0  0  0  0  0  0  0  0  0  0  0
    5.1743   -0.9763    0.8900 H   0  0  0  0  0  0  0  0  0  0  0  0
    5.1743   -0.9763   -0.8900 H   0  0  0  0  0  0  0  0  0  0  0  0
    3.7942    1.0838    0.8900 H   0  0  0  0  0  0  0  0  0  0  0  0
    3.7942    1.0838   -0.8900 H   0  0  0  0  0  0  0  0  0  0  0  0
    2.6806   -1.1318   -0.8900 H   0  0  0  0  0  0  0  0  0  0  0  0
    2.6806   -1.1318    0.8900 H   0  0  0  0  0  0  0  0  0  0  0  0
    1.3005    0.9283    0.8900 H   0  0  0  0  0  0  0  0  0  0  0  0
    1.3005    0.9283   -0.8900 H   0  0  0  0  0  0  0  0  0  0  0  0
    0.1870   -1.2872   -0.8900 H   0  0  0  0  0  0  0  0  0  0  0  0
    0.1870   -1.2872    0.8900 H   0  0  0  0  0  0  0  0  0  0  0  0
   -3.5162    0.9521    0.8900 H   0  0  0  0  0  0  0  0  0  0  0  0
   -3.5162    0.9521   -0.8900 H   0  0  0  0  0  0  0  0  0  0  0  0
   -5.6466    0.0476   -0.0000 H   0  0  0  0  0  0  0  0  0  0  0  0
   -4.7442   -1.2022   -0.8900 H   0  0  0  0  0  0  0  0  0  0  0  0
   -4.7442   -1.2022    0.8900 H   0  0  0  0  0  0  0  0  0  0  0  0
  1  2  1  0  0  0  0
  2  3  1  0  0  0  0
  3  4  1  0  0  0  0
  4  5  1  0  0  0  0
  5  6  1  0  0  0  0
  6  7  2  0  0  0  0
  6  8  1  0  0  0  0
  8  9  1  0  0  0  0
  9 10  1  0  0  0  0
  1 11  1  0  0  0  0
  1 12  1  0  0  0  0
  1 13  1  0  0  0  0
  2 14  1  0  0  0  0
  2 15  1  0  0  0  0
  3 16  1  0  0  0  0
  3 17  1  0  0  0  0
  4 18  1  0  0  0  0
  4 19  1  0  0  0  0
  5 20  1  0  0  0  0
  5 21  1  0  0  0  0
  9 22  1  0  0  0  0
  9 23  1  0  0  0  0
 10 24  1  0  0  0  0
 10 25  1  0  0  0  0
 10 26  1  0  0  0  0
M  END
$$$$
