C9H16O2
APtclcactv05262212103D 0   0.00000     0.00000
 
 27 27  0  0  0  0  0  0  0  0999 V2000
    4.2178    0.9236   -0.1611 C   0  0  0  0  0  0  0  0  0  0  0  0
    3.1791   -0.1568    0.1467 C   0  0  0  0  0  0  0  0  0  0  0  0
    1.8610    0.3154   -0.2380 O   0  0  0  0  0  0  0  0  0  0  0  0
    0.8305   -0.5198   -0.0323 C   0  0  0  0  0  0  0  0  0  0  0  0
    1.0235   -1.6093    0.4532 O   0  0  0  0  0  0  0  0  0  0  0  0
   -0.5671   -0.0985   -0.4067 C   0  0  0  0  0  0  0  0  0  0  0  0
   -1.5465   -1.2251   -0.0712 C   0  0  0  0  0  0  0  0  0  0  0  0
   -2.9654   -0.7974   -0.4514 C   0  0  0  0  0  0  0  0  0  0  0  0
   -3.3465    0.4600    0.3326 C   0  0  0  0  0  0  0  0  0  0  0  0
   -2.3671    1.5865   -0.0029 C   0  0  0  0  0  0  0  0  0  0  0  0
   -0.9481    1.1589    0.3773 C   0  0  0  0  0  0  0  0  0  0  0  0
    3.9782    1.8279    0.3984 H   0  0  0  0  0  0  0  0  0  0  0  0
    5.2073    0.5692    0.1277 H   0  0  0  0  0  0  0  0  0  0  0  0
    4.2079    1.1436   -1.2286 H   0  0  0  0  0  0  0  0  0  0  0  0
    3.4187   -1.0610   -0.4128 H   0  0  0  0  0  0  0  0  0  0  0  0
    3.1890   -0.3767    1.2142 H   0  0  0  0  0  0  0  0  0  0  0  0
   -0.6089    0.1130   -1.4752 H   0  0  0  0  0  0  0  0  0  0  0  0
   -1.2750   -2.1209   -0.6298 H   0  0  0  0  0  0  0  0  0  0  0  0
   -1.5048   -1.4366    0.9973 H   0  0  0  0  0  0  0  0  0  0  0  0
   -3.0072   -0.5859   -1.5199 H   0  0  0  0  0  0  0  0  0  0  0  0
   -3.6632   -1.6000   -0.2124 H   0  0  0  0  0  0  0  0  0  0  0  0
   -4.3574    0.7646    0.0618 H   0  0  0  0  0  0  0  0  0  0  0  0
   -3.3047    0.2485    1.4011 H   0  0  0  0  0  0  0  0  0  0  0  0
   -2.4088    1.7980   -1.0714 H   0  0  0  0  0  0  0  0  0  0  0  0
   -2.6385    2.4823    0.5556 H   0  0  0  0  0  0  0  0  0  0  0  0
   -0.9064    0.9474    1.4458 H   0  0  0  0  0  0  0  0  0  0  0  0
   -0.2504    1.9614    0.1382 H   0  0  0  0  0  0  0  0  0  0  0  0
  1  2  1  0  0  0  0
  2  3  1  0  0  0  0
  3  4  1  0  0  0  0
  4  5  2  0  0  0  0
  4  6  1  0  0  0  0
  6  7  1  0  0  0  0
  7  8  1  0  0  0  0
  8  9  1  0  0  0  0
  9 10  1  0  0  0  0
 10 11  1  0  0  0  0
  6 11  1  0  0  0  0
  1 12  1  0  0  0  0
  1 13  1  0  0  0  0
  1 14  1  0  0  0  0
  2 15  1  0  0  0  0
  2 16  1  0  0  0  0
  6 17  1  0  0  0  0
  7 18  1  0  0  0  0
  7 19  1  0  0  0  0
  8 20  1  0  0  0  0
  8 21  1  0  0  0  0
  9 22  1  0  0  0  0
  9 23  1  0  0  0  0
 10 24  1  0  0  0  0
 10 25  1  0  0  0  0
 11 26  1  0  0  0  0
 11 27  1  0  0  0  0
M  END
$$$$
