C6H12O2
APtclcactv05262212103D 0   0.00000     0.00000
 
 20 19  0  0  0  0  0  0  0  0999 V2000
    3.3333   -0.5034   -0.0929 C   0  0  0  0  0  0  0  0  0  0  0  0
    2.1158    0.3942    0.1375 C   0  0  0  0  0  0  0  0  0  0  0  0
    0.9077   -0.3275   -0.2201 O   0  0  0  0  0  0  0  0  0  0  0  0
   -0.2568    0.3239   -0.0750 C   0  0  0  0  0  0  0  0  0  0  0  0
   -0.2665    1.4596    0.3373 O   0  0  0  0  0  0  0  0  0  0  0  0
   -1.5523   -0.3612   -0.4262 C   0  0  0  0  0  0  0  0  0  0  0  0
   -1.7184   -1.6123    0.4387 C   0  0  0  0  0  0  0  0  0  0  0  0
   -2.7200    0.5940   -0.1708 C   0  0  0  0  0  0  0  0  0  0  0  0
    3.2478   -1.3973    0.5248 H   0  0  0  0  0  0  0  0  0  0  0  0
    3.3792   -0.7907   -1.1434 H   0  0  0  0  0  0  0  0  0  0  0  0
    4.2402    0.0384    0.1755 H   0  0  0  0  0  0  0  0  0  0  0  0
    2.0699    0.6815    1.1880 H   0  0  0  0  0  0  0  0  0  0  0  0
    2.2014    1.2881   -0.4802 H   0  0  0  0  0  0  0  0  0  0  0  0
   -1.5392   -0.6459   -1.4783 H   0  0  0  0  0  0  0  0  0  0  0  0
   -0.8866   -2.2928    0.2568 H   0  0  0  0  0  0  0  0  0  0  0  0
   -1.7315   -1.3276    1.4908 H   0  0  0  0  0  0  0  0  0  0  0  0
   -2.6554   -2.1079    0.1847 H   0  0  0  0  0  0  0  0  0  0  0  0
   -2.6016    1.4853   -0.7870 H   0  0  0  0  0  0  0  0  0  0  0  0
   -3.6570    0.0984   -0.4249 H   0  0  0  0  0  0  0  0  0  0  0  0
   -2.7331    0.8787    0.8813 H   0  0  0  0  0  0  0  0  0  0  0  0
  1  2  1  0  0  0  0
  2  3  1  0  0  0  0
  3  4  1  0  0  0  0
  4  5  2  0  0  0  0
  4  6  1  0  0  0  0
  6  7  1  0  0  0  0
  6  8  1  0  0  0  0
  1  9  1  0  0  0  0
  1 10  1  0  0  0  0
  1 11  1  0  0  0  0
  2 12  1  0  0  0  0
  2 13  1  0  0  0  0
  6 14  1  0  0  0  0
  7 15  1  0  0  0  0
  7 16  1  0  0  0  0
  7 17  1  0  0  0  0
  8 18  1  0  0  0  0
  8 19  1  0  0  0  0
  8 20  1  0  0  0  0
M  END
$$$$
