C11H12O3
APtclcactv05262212113D 0   0.00000     0.00000
 
 26 27  0  0  0  0  0  0  0  0999 V2000
   -2.2366    1.5501   -0.7946 C   0  0  0  0  0  0  0  0  0  0  0  0
   -2.6786    0.1877   -0.2568 C   0  0  0  0  0  0  0  0  0  0  0  0
   -1.8325   -0.1774    0.9646 C   0  0  0  0  0  0  0  0  0  0  0  0
   -0.3970   -0.3613    0.5445 C   0  0  0  0  0  0  0  0  0  0  0  0
    0.4683    0.7167    0.5553 C   0  0  0  0  0  0  0  0  0  0  0  0
    1.7885    0.5500    0.1698 C   0  0  0  0  0  0  0  0  0  0  0  0
    2.2406   -0.7057   -0.2281 C   0  0  0  0  0  0  0  0  0  0  0  0
    1.3676   -1.7815   -0.2371 C   0  0  0  0  0  0  0  0  0  0  0  0
    0.0531   -1.6090    0.1545 C   0  0  0  0  0  0  0  0  0  0  0  0
    3.5624   -0.6101   -0.5553 O   0  0  0  0  0  0  0  0  0  0  0  0
    4.0162    0.6225    0.0347 C   0  0  0  0  0  0  0  0  0  0  0  0
    2.8271    1.4324    0.0920 O   0  0  0  0  0  0  0  0  0  0  0  0
   -4.1313    0.2512    0.1393 C   0  0  0  0  0  0  0  0  0  0  0  0
   -4.9344   -0.4776   -0.3920 O   0  0  0  0  0  0  0  0  0  0  0  0
   -1.1859    1.5042   -1.0811 H   0  0  0  0  0  0  0  0  0  0  0  0
   -2.8394    1.8102   -1.6648 H   0  0  0  0  0  0  0  0  0  0  0  0
   -2.3696    2.3066   -0.0212 H   0  0  0  0  0  0  0  0  0  0  0  0
   -2.5456   -0.5688   -1.0302 H   0  0  0  0  0  0  0  0  0  0  0  0
   -1.8955    0.6224    1.7025 H   0  0  0  0  0  0  0  0  0  0  0  0
   -2.2050   -1.1043    1.4008 H   0  0  0  0  0  0  0  0  0  0  0  0
    0.1148    1.6895    0.8639 H   0  0  0  0  0  0  0  0  0  0  0  0
    1.7155   -2.7564   -0.5452 H   0  0  0  0  0  0  0  0  0  0  0  0
   -0.6259   -2.4487    0.1472 H   0  0  0  0  0  0  0  0  0  0  0  0
    4.4081    0.4462    1.0364 H   0  0  0  0  0  0  0  0  0  0  0  0
    4.7706    1.0938   -0.5953 H   0  0  0  0  0  0  0  0  0  0  0  0
   -4.4541    0.9485    0.8982 H   0  0  0  0  0  0  0  0  0  0  0  0
  1  2  1  0  0  0  0
  2  3  1  0  0  0  0
  3  4  1  0  0  0  0
  4  5  2  0  0  0  0
  5  6  1  0  0  0  0
  6  7  2  0  0  0  0
  7  8  1  0  0  0  0
  8  9  2  0  0  0  0
  4  9  1  0  0  0  0
  7 10  1  0  0  0  0
 10 11  1  0  0  0  0
 11 12  1  0  0  0  0
  6 12  1  0  0  0  0
  2 13  1  0  0  0  0
 13 14  2  0  0  0  0
  1 15  1  0  0  0  0
  1 16  1  0  0  0  0
  1 17  1  0  0  0  0
  2 18  1  0  0  0  0
  3 19  1  0  0  0  0
  3 20  1  0  0  0  0
  5 21  1  0  0  0  0
  8 22  1  0  0  0  0
  9 23  1  0  0  0  0
 11 24  1  0  0  0  0
 11 25  1  0  0  0  0
 13 26  1  0  0  0  0
M  END
$$$$
