C7H14O
APtclcactv05262212103D 0   0.00000     0.00000
 
 22 21  0  0  0  0  0  0  0  0999 V2000
    4.3072   -0.4138    0.1053 C   0  0  0  0  0  0  0  0  0  0  0  0
    3.0718    0.4887    0.1035 C   0  0  0  0  0  0  0  0  0  0  0  0
    1.8132   -0.3698   -0.0368 C   0  0  0  0  0  0  0  0  0  0  0  0
    0.5778    0.5328   -0.0386 C   0  0  0  0  0  0  0  0  0  0  0  0
   -0.6809   -0.3257   -0.1789 C   0  0  0  0  0  0  0  0  0  0  0  0
   -1.9163    0.5769   -0.1807 C   0  0  0  0  0  0  0  0  0  0  0  0
   -3.1560   -0.2687   -0.3189 C   0  0  0  0  0  0  0  0  0  0  0  0
   -4.0417   -0.1796    0.4971 O   0  0  0  0  0  0  0  0  0  0  0  0
    5.2039    0.1978    0.2053 H   0  0  0  0  0  0  0  0  0  0  0  0
    4.2472   -1.1102    0.9417 H   0  0  0  0  0  0  0  0  0  0  0  0
    4.3506   -0.9721   -0.8299 H   0  0  0  0  0  0  0  0  0  0  0  0
    3.0284    1.0471    1.0387 H   0  0  0  0  0  0  0  0  0  0  0  0
    3.1318    1.1851   -0.7329 H   0  0  0  0  0  0  0  0  0  0  0  0
    1.8566   -0.9281   -0.9720 H   0  0  0  0  0  0  0  0  0  0  0  0
    1.7532   -1.0661    0.7996 H   0  0  0  0  0  0  0  0  0  0  0  0
    0.5343    1.0911    0.8966 H   0  0  0  0  0  0  0  0  0  0  0  0
    0.6377    1.2292   -0.8750 H   0  0  0  0  0  0  0  0  0  0  0  0
   -0.6375   -0.8840   -1.1141 H   0  0  0  0  0  0  0  0  0  0  0  0
   -0.7409   -1.0220    0.6575 H   0  0  0  0  0  0  0  0  0  0  0  0
   -1.9597    1.1352    0.7545 H   0  0  0  0  0  0  0  0  0  0  0  0
   -1.8563    1.2733   -1.0171 H   0  0  0  0  0  0  0  0  0  0  0  0
   -3.2523   -0.9544   -1.1477 H   0  0  0  0  0  0  0  0  0  0  0  0
  1  2  1  0  0  0  0
  2  3  1  0  0  0  0
  3  4  1  0  0  0  0
  4  5  1  0  0  0  0
  5  6  1  0  0  0  0
  6  7  1  0  0  0  0
  7  8  2  0  0  0  0
  1  9  1  0  0  0  0
  1 10  1  0  0  0  0
  1 11  1  0  0  0  0
  2 12  1  0  0  0  0
  2 13  1  0  0  0  0
  3 14  1  0  0  0  0
  3 15  1  0  0  0  0
  4 16  1  0  0  0  0
  4 17  1  0  0  0  0
  5 18  1  0  0  0  0
  5 19  1  0  0  0  0
  6 20  1  0  0  0  0
  6 21  1  0  0  0  0
  7 22  1  0  0  0  0
M  END
$$$$
