C7H14O2
APtclcactv05262212103D 0   0.00000     0.00000
 
 23 22  0  0  0  0  0  0  0  0999 V2000
    4.7336   -0.4394   -0.0000 C   0  0  0  0  0  0  0  0  0  0  0  0
    3.5274    0.5019    0.0000 C   0  0  0  0  0  0  0  0  0  0  0  0
    2.2379   -0.3216   -0.0000 C   0  0  0  0  0  0  0  0  0  0  0  0
    1.0317    0.6196    0.0000 C   0  0  0  0  0  0  0  0  0  0  0  0
   -0.2578   -0.2039   -0.0000 C   0  0  0  0  0  0  0  0  0  0  0  0
   -1.4640    0.7373    0.0000 C   0  0  0  0  0  0  0  0  0  0  0  0
   -2.7341   -0.0738   -0.0000 C   0  0  0  0  0  0  0  0  0  0  0  0
   -3.9254    0.5446   -0.0000 O   0  0  0  0  0  0  0  0  0  0  0  0
   -2.6801   -1.2809   -0.0000 O   0  0  0  0  0  0  0  0  0  0  0  0
    4.7040   -1.0680    0.8900 H   0  0  0  0  0  0  0  0  0  0  0  0
    4.7040   -1.0680   -0.8900 H   0  0  0  0  0  0  0  0  0  0  0  0
    5.6523    0.1473    0.0000 H   0  0  0  0  0  0  0  0  0  0  0  0
    3.5570    1.1305    0.8900 H   0  0  0  0  0  0  0  0  0  0  0  0
    3.5570    1.1305   -0.8900 H   0  0  0  0  0  0  0  0  0  0  0  0
    2.2083   -0.9503   -0.8900 H   0  0  0  0  0  0  0  0  0  0  0  0
    2.2083   -0.9503    0.8900 H   0  0  0  0  0  0  0  0  0  0  0  0
    1.0613    1.2482    0.8900 H   0  0  0  0  0  0  0  0  0  0  0  0
    1.0613    1.2482   -0.8900 H   0  0  0  0  0  0  0  0  0  0  0  0
   -0.2875   -0.8325   -0.8900 H   0  0  0  0  0  0  0  0  0  0  0  0
   -0.2875   -0.8325    0.8900 H   0  0  0  0  0  0  0  0  0  0  0  0
   -1.4344    1.3659    0.8900 H   0  0  0  0  0  0  0  0  0  0  0  0
   -1.4344    1.3659   -0.8900 H   0  0  0  0  0  0  0  0  0  0  0  0
   -4.7121   -0.0178    0.0000 H   0  0  0  0  0  0  0  0  0  0  0  0
  1  2  1  0  0  0  0
  2  3  1  0  0  0  0
  3  4  1  0  0  0  0
  4  5  1  0  0  0  0
  5  6  1  0  0  0  0
  6  7  1  0  0  0  0
  7  8  1  0  0  0  0
  7  9  2  0  0  0  0
  1 10  1  0  0  0  0
  1 11  1  0  0  0  0
  1 12  1  0  0  0  0
  2 13  1  0  0  0  0
  2 14  1  0  0  0  0
  3 15  1  0  0  0  0
  3 16  1  0  0  0  0
  4 17  1  0  0  0  0
  4 18  1  0  0  0  0
  5 19  1  0  0  0  0
  5 20  1  0  0  0  0
  6 21  1  0  0  0  0
  6 22  1  0  0  0  0
  8 23  1  0  0  0  0
M  END
$$$$
