C6H12O2
APtclcactv05262212103D 0   0.00000     0.00000
 
 20 19  0  0  0  0  0  0  0  0999 V2000
    4.1274   -0.2151   -0.0000 C   0  0  0  0  0  0  0  0  0  0  0  0
    2.7948    0.5366    0.0000 C   0  0  0  0  0  0  0  0  0  0  0  0
    1.6419   -0.4692   -0.0000 C   0  0  0  0  0  0  0  0  0  0  0  0
    0.3093    0.2825    0.0000 C   0  0  0  0  0  0  0  0  0  0  0  0
   -0.8437   -0.7233    0.0000 C   0  0  0  0  0  0  0  0  0  0  0  0
   -2.1562    0.0171   -0.0000 C   0  0  0  0  0  0  0  0  0  0  0  0
   -3.3119   -0.6656    0.0000 O   0  0  0  0  0  0  0  0  0  0  0  0
   -2.1683    1.2253   -0.0000 O   0  0  0  0  0  0  0  0  0  0  0  0
    4.1914   -0.8412    0.8900 H   0  0  0  0  0  0  0  0  0  0  0  0
    4.1914   -0.8412   -0.8900 H   0  0  0  0  0  0  0  0  0  0  0  0
    4.9488    0.5014    0.0000 H   0  0  0  0  0  0  0  0  0  0  0  0
    2.7308    1.1626    0.8900 H   0  0  0  0  0  0  0  0  0  0  0  0
    2.7308    1.1626   -0.8900 H   0  0  0  0  0  0  0  0  0  0  0  0
    1.7059   -1.0953   -0.8900 H   0  0  0  0  0  0  0  0  0  0  0  0
    1.7059   -1.0953    0.8900 H   0  0  0  0  0  0  0  0  0  0  0  0
    0.2453    0.9085    0.8900 H   0  0  0  0  0  0  0  0  0  0  0  0
    0.2453    0.9085   -0.8900 H   0  0  0  0  0  0  0  0  0  0  0  0
   -0.7797   -1.3494   -0.8900 H   0  0  0  0  0  0  0  0  0  0  0  0
   -0.7797   -1.3494    0.8900 H   0  0  0  0  0  0  0  0  0  0  0  0
   -4.1281   -0.1471   -0.0000 H   0  0  0  0  0  0  0  0  0  0  0  0
  1  2  1  0  0  0  0
  2  3  1  0  0  0  0
  3  4  1  0  0  0  0
  4  5  1  0  0  0  0
  5  6  1  0  0  0  0
  6  7  1  0  0  0  0
  6  8  2  0  0  0  0
  1  9  1  0  0  0  0
  1 10  1  0  0  0  0
  1 11  1  0  0  0  0
  2 12  1  0  0  0  0
  2 13  1  0  0  0  0
  3 14  1  0  0  0  0
  3 15  1  0  0  0  0
  4 16  1  0  0  0  0
  4 17  1  0  0  0  0
  5 18  1  0  0  0  0
  5 19  1  0  0  0  0
  7 20  1  0  0  0  0
M  END
$$$$
