C8H16O2
APtclcactv05262212103D 0   0.00000     0.00000
 
 26 25  0  0  0  0  0  0  0  0999 V2000
    5.3742   -0.3058   -0.0000 C   0  0  0  0  0  0  0  0  0  0  0  0
    4.0918    0.5286    0.0000 C   0  0  0  0  0  0  0  0  0  0  0  0
    2.8776   -0.4023   -0.0000 C   0  0  0  0  0  0  0  0  0  0  0  0
    1.5952    0.4322    0.0000 C   0  0  0  0  0  0  0  0  0  0  0  0
    0.3810   -0.4987   -0.0000 C   0  0  0  0  0  0  0  0  0  0  0  0
   -0.9015    0.3357    0.0000 C   0  0  0  0  0  0  0  0  0  0  0  0
   -2.0538   -0.5477    0.0000 O   0  0  0  0  0  0  0  0  0  0  0  0
   -3.2651    0.0306   -0.0000 C   0  0  0  0  0  0  0  0  0  0  0  0
   -3.3594    1.2352   -0.0000 O   0  0  0  0  0  0  0  0  0  0  0  0
   -4.5074   -0.8224    0.0000 C   0  0  0  0  0  0  0  0  0  0  0  0
    6.2392    0.3574    0.0000 H   0  0  0  0  0  0  0  0  0  0  0  0
    5.3985   -0.9347    0.8900 H   0  0  0  0  0  0  0  0  0  0  0  0
    5.3985   -0.9347   -0.8900 H   0  0  0  0  0  0  0  0  0  0  0  0
    4.0675    1.1575    0.8900 H   0  0  0  0  0  0  0  0  0  0  0  0
    4.0675    1.1575   -0.8900 H   0  0  0  0  0  0  0  0  0  0  0  0
    2.9019   -1.0311   -0.8900 H   0  0  0  0  0  0  0  0  0  0  0  0
    2.9019   -1.0311    0.8900 H   0  0  0  0  0  0  0  0  0  0  0  0
    1.5709    1.0610    0.8900 H   0  0  0  0  0  0  0  0  0  0  0  0
    1.5709    1.0610   -0.8900 H   0  0  0  0  0  0  0  0  0  0  0  0
    0.4053   -1.1276   -0.8900 H   0  0  0  0  0  0  0  0  0  0  0  0
    0.4053   -1.1276    0.8900 H   0  0  0  0  0  0  0  0  0  0  0  0
   -0.9257    0.9646    0.8900 H   0  0  0  0  0  0  0  0  0  0  0  0
   -0.9257    0.9646   -0.8900 H   0  0  0  0  0  0  0  0  0  0  0  0
   -4.8069   -1.0281    1.0277 H   0  0  0  0  0  0  0  0  0  0  0  0
   -5.3107   -0.2945   -0.5138 H   0  0  0  0  0  0  0  0  0  0  0  0
   -4.3031   -1.7618   -0.5138 H   0  0  0  0  0  0  0  0  0  0  0  0
  1  2  1  0  0  0  0
  2  3  1  0  0  0  0
  3  4  1  0  0  0  0
  4  5  1  0  0  0  0
  5  6  1  0  0  0  0
  6  7  1  0  0  0  0
  7  8  1  0  0  0  0
  8  9  2  0  0  0  0
  8 10  1  0  0  0  0
  1 11  1  0  0  0  0
  1 12  1  0  0  0  0
  1 13  1  0  0  0  0
  2 14  1  0  0  0  0
  2 15  1  0  0  0  0
  3 16  1  0  0  0  0
  3 17  1  0  0  0  0
  4 18  1  0  0  0  0
  4 19  1  0  0  0  0
  5 20  1  0  0  0  0
  5 21  1  0  0  0  0
  6 22  1  0  0  0  0
  6 23  1  0  0  0  0
 10 24  1  0  0  0  0
 10 25  1  0  0  0  0
 10 26  1  0  0  0  0
M  END
$$$$
