C16H26O
APtclcactv05262212113D 0   0.00000     0.00000
 
 43 44  0  0  0  0  0  0  0  0999 V2000
    2.7463    2.0175    0.3538 C   0  0  0  0  0  0  0  0  0  0  0  0
    1.4782    1.1949    0.5908 C   0  0  0  0  0  0  0  0  0  0  0  0
    0.2554    1.9929    0.1561 C   0  0  0  0  0  0  0  0  0  0  0  0
   -0.9943    1.1368    0.1519 C   0  0  0  0  0  0  0  0  0  0  0  0
   -0.9588   -0.1611    0.1342 C   0  0  0  0  0  0  0  0  0  0  0  0
    0.3355   -0.9479    0.1556 C   0  0  0  0  0  0  0  0  0  0  0  0
    1.5211   -0.0845   -0.2565 C   0  0  0  0  0  0  0  0  0  0  0  0
    1.4134    0.2715   -1.7406 C   0  0  0  0  0  0  0  0  0  0  0  0
    2.8077   -0.8256    0.0010 C   0  0  0  0  0  0  0  0  0  0  0  0
    3.5612   -1.0625   -0.9124 O   0  0  0  0  0  0  0  0  0  0  0  0
    3.1540   -1.2712    1.3984 C   0  0  0  0  0  0  0  0  0  0  0  0
   -2.2084   -1.0155    0.0736 C   0  0  0  0  0  0  0  0  0  0  0  0
   -3.4408   -0.2358    0.5141 C   0  0  0  0  0  0  0  0  0  0  0  0
   -3.4677    1.0768   -0.2811 C   0  0  0  0  0  0  0  0  0  0  0  0
   -2.2895    1.9219    0.1862 C   0  0  0  0  0  0  0  0  0  0  0  0
   -2.4118   -1.5024   -1.3625 C   0  0  0  0  0  0  0  0  0  0  0  0
   -2.0299   -2.2276    0.9900 C   0  0  0  0  0  0  0  0  0  0  0  0
    2.6816    2.9530    0.9094 H   0  0  0  0  0  0  0  0  0  0  0  0
    3.6145    1.4526    0.6932 H   0  0  0  0  0  0  0  0  0  0  0  0
    2.8461    2.2329   -0.7100 H   0  0  0  0  0  0  0  0  0  0  0  0
    1.3960    0.9380    1.6468 H   0  0  0  0  0  0  0  0  0  0  0  0
    0.1128    2.8279    0.8420 H   0  0  0  0  0  0  0  0  0  0  0  0
    0.4232    2.3830   -0.8478 H   0  0  0  0  0  0  0  0  0  0  0  0
    0.5047   -1.3278    1.1632 H   0  0  0  0  0  0  0  0  0  0  0  0
    0.2520   -1.7897   -0.5318 H   0  0  0  0  0  0  0  0  0  0  0  0
    0.4891    0.8218   -1.9161 H   0  0  0  0  0  0  0  0  0  0  0  0
    2.2642    0.8890   -2.0288 H   0  0  0  0  0  0  0  0  0  0  0  0
    1.4103   -0.6427   -2.3342 H   0  0  0  0  0  0  0  0  0  0  0  0
    2.3607   -0.9704    2.0827 H   0  0  0  0  0  0  0  0  0  0  0  0
    3.2591   -2.3559    1.4183 H   0  0  0  0  0  0  0  0  0  0  0  0
    4.0926   -0.8095    1.7048 H   0  0  0  0  0  0  0  0  0  0  0  0
   -4.3397   -0.8148    0.3027 H   0  0  0  0  0  0  0  0  0  0  0  0
   -3.3806   -0.0208    1.5809 H   0  0  0  0  0  0  0  0  0  0  0  0
   -3.3725    0.8661   -1.3462 H   0  0  0  0  0  0  0  0  0  0  0  0
   -4.4013    1.6060   -0.0899 H   0  0  0  0  0  0  0  0  0  0  0  0
   -2.4749    2.2585    1.2062 H   0  0  0  0  0  0  0  0  0  0  0  0
   -2.1957    2.7922   -0.4632 H   0  0  0  0  0  0  0  0  0  0  0  0
   -1.5488   -2.0919   -1.6719 H   0  0  0  0  0  0  0  0  0  0  0  0
   -3.3097   -2.1182   -1.4136 H   0  0  0  0  0  0  0  0  0  0  0  0
   -2.5218   -0.6439   -2.0251 H   0  0  0  0  0  0  0  0  0  0  0  0
   -1.8663   -1.8888    2.0130 H   0  0  0  0  0  0  0  0  0  0  0  0
   -2.9258   -2.8473    0.9514 H   0  0  0  0  0  0  0  0  0  0  0  0
   -1.1705   -2.8104    0.6584 H   0  0  0  0  0  0  0  0  0  0  0  0
  1  2  1  0  0  0  0
  2  3  1  0  0  0  0
  3  4  1  0  0  0  0
  4  5  2  0  0  0  0
  5  6  1  0  0  0  0
  6  7  1  0  0  0  0
  2  7  1  0  0  0  0
  7  8  1  0  0  0  0
  7  9  1  0  0  0  0
  9 10  2  0  0  0  0
  9 11  1  0  0  0  0
  5 12  1  0  0  0  0
 12 13  1  0  0  0  0
 13 14  1  0  0  0  0
 14 15  1  0  0  0  0
  4 15  1  0  0  0  0
 12 16  1  0  0  0  0
 12 17  1  0  0  0  0
  1 18  1  0  0  0  0
  1 19  1  0  0  0  0
  1 20  1  0  0  0  0
  2 21  1  0  0  0  0
  3 22  1  0  0  0  0
  3 23  1  0  0  0  0
  6 24  1  0  0  0  0
  6 25  1  0  0  0  0
  8 26  1  0  0  0  0
  8 27  1  0  0  0  0
  8 28  1  0  0  0  0
 11 29  1  0  0  0  0
 11 30  1  0  0  0  0
 11 31  1  0  0  0  0
 13 32  1  0  0  0  0
 13 33  1  0  0  0  0
 14 34  1  0  0  0  0
 14 35  1  0  0  0  0
 15 36  1  0  0  0  0
 15 37  1  0  0  0  0
 16 38  1  0  0  0  0
 16 39  1  0  0  0  0
 16 40  1  0  0  0  0
 17 41  1  0  0  0  0
 17 42  1  0  0  0  0
 17 43  1  0  0  0  0
M  END
$$$$
