C7H14O2
APtclcactv05262212113D 0   0.00000     0.00000
 
 23 22  0  0  0  0  0  0  0  0999 V2000
   -2.6059    1.2851   -0.6166 C   0  0  0  0  0  0  0  0  0  0  0  0
   -2.4606    0.0864    0.3230 C   0  0  0  0  0  0  0  0  0  0  0  0
   -3.6877   -0.8177    0.1898 C   0  0  0  0  0  0  0  0  0  0  0  0
   -1.2032   -0.7026   -0.0474 C   0  0  0  0  0  0  0  0  0  0  0  0
    0.0339    0.1616    0.2048 C   0  0  0  0  0  0  0  0  0  0  0  0
    1.2273   -0.5872   -0.1468 O   0  0  0  0  0  0  0  0  0  0  0  0
    2.4063    0.0332    0.0171 C   0  0  0  0  0  0  0  0  0  0  0  0
    3.6878   -0.6813   -0.3267 C   0  0  0  0  0  0  0  0  0  0  0  0
    2.4400    1.1644    0.4403 O   0  0  0  0  0  0  0  0  0  0  0  0
   -1.7317    1.9292   -0.5217 H   0  0  0  0  0  0  0  0  0  0  0  0
   -2.6877    0.9328   -1.6449 H   0  0  0  0  0  0  0  0  0  0  0  0
   -3.5017    1.8471   -0.3527 H   0  0  0  0  0  0  0  0  0  0  0  0
   -2.3788    0.4386    1.3513 H   0  0  0  0  0  0  0  0  0  0  0  0
   -3.7696   -1.1700   -0.8385 H   0  0  0  0  0  0  0  0  0  0  0  0
   -3.5842   -1.6717    0.8592 H   0  0  0  0  0  0  0  0  0  0  0  0
   -4.5835   -0.2556    0.4537 H   0  0  0  0  0  0  0  0  0  0  0  0
   -1.1471   -1.6042    0.5626 H   0  0  0  0  0  0  0  0  0  0  0  0
   -1.2448   -0.9788   -1.1010 H   0  0  0  0  0  0  0  0  0  0  0  0
   -0.0222    1.0632   -0.4053 H   0  0  0  0  0  0  0  0  0  0  0  0
    0.0755    0.4378    1.2584 H   0  0  0  0  0  0  0  0  0  0  0  0
    3.9404   -0.4925   -1.3701 H   0  0  0  0  0  0  0  0  0  0  0  0
    4.4907   -0.3155    0.3134 H   0  0  0  0  0  0  0  0  0  0  0  0
    3.5593   -1.7526   -0.1721 H   0  0  0  0  0  0  0  0  0  0  0  0
  1  2  1  0  0  0  0
  2  3  1  0  0  0  0
  2  4  1  0  0  0  0
  4  5  1  0  0  0  0
  5  6  1  0  0  0  0
  6  7  1  0  0  0  0
  7  8  1  0  0  0  0
  7  9  2  0  0  0  0
  1 10  1  0  0  0  0
  1 11  1  0  0  0  0
  1 12  1  0  0  0  0
  2 13  1  0  0  0  0
  3 14  1  0  0  0  0
  3 15  1  0  0  0  0
  3 16  1  0  0  0  0
  4 17  1  0  0  0  0
  4 18  1  0  0  0  0
  5 19  1  0  0  0  0
  5 20  1  0  0  0  0
  8 21  1  0  0  0  0
  8 22  1  0  0  0  0
  8 23  1  0  0  0  0
M  END
$$$$
