C5H10O2
APtclcactv05262212103D 0   0.00000     0.00000
 
 17 16  0  0  0  0  0  0  0  0999 V2000
   -1.3447    1.2544   -0.5900 C   0  0  0  0  0  0  0  0  0  0  0  0
   -1.2338    0.0120    0.2961 C   0  0  0  0  0  0  0  0  0  0  0  0
   -2.5214   -0.8074    0.1891 C   0  0  0  0  0  0  0  0  0  0  0  0
   -0.0483   -0.8386   -0.1644 C   0  0  0  0  0  0  0  0  0  0  0  0
    1.2328   -0.0761    0.0560 C   0  0  0  0  0  0  0  0  0  0  0  0
    2.4092   -0.6300   -0.2771 O   0  0  0  0  0  0  0  0  0  0  0  0
    1.2008    1.0338    0.5324 O   0  0  0  0  0  0  0  0  0  0  0  0
   -0.4273    1.8381   -0.5138 H   0  0  0  0  0  0  0  0  0  0  0  0
   -1.4965    0.9498   -1.6255 H   0  0  0  0  0  0  0  0  0  0  0  0
   -2.1892    1.8604   -0.2619 H   0  0  0  0  0  0  0  0  0  0  0  0
   -1.0819    0.3166    1.3316 H   0  0  0  0  0  0  0  0  0  0  0  0
   -2.6733   -1.1120   -0.8464 H   0  0  0  0  0  0  0  0  0  0  0  0
   -2.4424   -1.6925    0.8203 H   0  0  0  0  0  0  0  0  0  0  0  0
   -3.3660   -0.2014    0.5171 H   0  0  0  0  0  0  0  0  0  0  0  0
   -0.0223   -1.7658    0.4081 H   0  0  0  0  0  0  0  0  0  0  0  0
   -0.1563   -1.0689   -1.2243 H   0  0  0  0  0  0  0  0  0  0  0  0
    3.2037   -0.1025   -0.1171 H   0  0  0  0  0  0  0  0  0  0  0  0
  1  2  1  0  0  0  0
  2  3  1  0  0  0  0
  2  4  1  0  0  0  0
  4  5  1  0  0  0  0
  5  6  1  0  0  0  0
  5  7  2  0  0  0  0
  1  8  1  0  0  0  0
  1  9  1  0  0  0  0
  1 10  1  0  0  0  0
  2 11  1  0  0  0  0
  3 12  1  0  0  0  0
  3 13  1  0  0  0  0
  3 14  1  0  0  0  0
  4 15  1  0  0  0  0
  4 16  1  0  0  0  0
  6 17  1  0  0  0  0
M  END
$$$$
