C10H18O
APtclcactv05262212103D 0   0.00000     0.00000
 
 29 28  0  0  0  0  0  0  0  0999 V2000
    2.8918    1.4790    0.0632 C   0  0  0  0  0  0  0  0  0  0  0  0
    2.9817   -0.0133   -0.1269 C   0  0  0  0  0  0  0  0  0  0  0  0
    4.2378   -0.6269   -0.6896 C   0  0  0  0  0  0  0  0  0  0  0  0
    1.9679   -0.7771    0.1970 C   0  0  0  0  0  0  0  0  0  0  0  0
    0.6691   -0.1564    0.6429 C   0  0  0  0  0  0  0  0  0  0  0  0
   -0.4740   -0.6867   -0.2248 C   0  0  0  0  0  0  0  0  0  0  0  0
   -1.7927   -0.0565    0.2279 C   0  0  0  0  0  0  0  0  0  0  0  0
   -1.9929   -0.3115    1.7231 C   0  0  0  0  0  0  0  0  0  0  0  0
   -1.7558    1.3513   -0.0145 O   0  0  0  0  0  0  0  0  0  0  0  0
   -2.9332   -0.6693   -0.5434 C   0  0  0  0  0  0  0  0  0  0  0  0
   -3.7014    0.0867   -1.2880 C   0  0  0  0  0  0  0  0  0  0  0  0
    3.8535    1.9340   -0.1738 H   0  0  0  0  0  0  0  0  0  0  0  0
    2.1255    1.8839   -0.5977 H   0  0  0  0  0  0  0  0  0  0  0  0
    2.6314    1.6983    1.0987 H   0  0  0  0  0  0  0  0  0  0  0  0
    4.9185   -0.8732    0.1253 H   0  0  0  0  0  0  0  0  0  0  0  0
    3.9848   -1.5340   -1.2384 H   0  0  0  0  0  0  0  0  0  0  0  0
    4.7188    0.0828   -1.3628 H   0  0  0  0  0  0  0  0  0  0  0  0
    2.0629   -1.8516    0.1444 H   0  0  0  0  0  0  0  0  0  0  0  0
    0.4828   -0.4131    1.6857 H   0  0  0  0  0  0  0  0  0  0  0  0
    0.7302    0.9271    0.5408 H   0  0  0  0  0  0  0  0  0  0  0  0
   -0.2878   -0.4300   -1.2677 H   0  0  0  0  0  0  0  0  0  0  0  0
   -0.5352   -1.7702   -0.1228 H   0  0  0  0  0  0  0  0  0  0  0  0
   -1.1680    0.1317    2.2810 H   0  0  0  0  0  0  0  0  0  0  0  0
   -2.9324    0.1374    2.0457 H   0  0  0  0  0  0  0  0  0  0  0  0
   -2.0211   -1.3854    1.9080 H   0  0  0  0  0  0  0  0  0  0  0  0
   -1.6311    1.5872   -0.9439 H   0  0  0  0  0  0  0  0  0  0  0  0
   -3.1172   -1.7318   -0.4822 H   0  0  0  0  0  0  0  0  0  0  0  0
   -3.5173    1.1491   -1.3491 H   0  0  0  0  0  0  0  0  0  0  0  0
   -4.5187   -0.3525   -1.8407 H   0  0  0  0  0  0  0  0  0  0  0  0
  1  2  1  0  0  0  0
  2  3  1  0  0  0  0
  2  4  2  0  0  0  0
  4  5  1  0  0  0  0
  5  6  1  0  0  0  0
  6  7  1  0  0  0  0
  7  8  1  0  0  0  0
  7  9  1  0  0  0  0
  7 10  1  0  0  0  0
 10 11  2  0  0  0  0
  1 12  1  0  0  0  0
  1 13  1  0  0  0  0
  1 14  1  0  0  0  0
  3 15  1  0  0  0  0
  3 16  1  0  0  0  0
  3 17  1  0  0  0  0
  4 18  1  0  0  0  0
  5 19  1  0  0  0  0
  5 20  1  0  0  0  0
  6 21  1  0  0  0  0
  6 22  1  0  0  0  0
  8 23  1  0  0  0  0
  8 24  1  0  0  0  0
  8 25  1  0  0  0  0
  9 26  1  0  0  0  0
 10 27  1  0  0  0  0
 11 28  1  0  0  0  0
 11 29  1  0  0  0  0
M  END
$$$$
