C8H16O2
APtclcactv05262212113D 0   0.00000     0.00000
 
 26 25  0  0  0  0  0  0  0  0999 V2000
    4.3297    0.5388   -0.0428 C   0  0  0  0  0  0  0  0  0  0  0  0
    3.1194   -0.3400   -0.3649 C   0  0  0  0  0  0  0  0  0  0  0  0
    1.8367    0.3923    0.0340 C   0  0  0  0  0  0  0  0  0  0  0  0
    0.6264   -0.4865   -0.2881 C   0  0  0  0  0  0  0  0  0  0  0  0
    0.6625   -1.7435    0.5834 C   0  0  0  0  0  0  0  0  0  0  0  0
   -0.6402    0.2813   -0.0100 C   0  0  0  0  0  0  0  0  0  0  0  0
   -0.5809    1.4151    0.4033 O   0  0  0  0  0  0  0  0  0  0  0  0
   -1.8341   -0.2944   -0.2216 O   0  0  0  0  0  0  0  0  0  0  0  0
   -3.0116    0.5044    0.0678 C   0  0  0  0  0  0  0  0  0  0  0  0
   -4.2692   -0.3138   -0.2322 C   0  0  0  0  0  0  0  0  0  0  0  0
    4.3501    0.7515    1.0260 H   0  0  0  0  0  0  0  0  0  0  0  0
    5.2435    0.0170   -0.3270 H   0  0  0  0  0  0  0  0  0  0  0  0
    4.2576    1.4740   -0.5980 H   0  0  0  0  0  0  0  0  0  0  0  0
    3.0990   -0.5527   -1.4338 H   0  0  0  0  0  0  0  0  0  0  0  0
    3.1915   -1.2753    0.1903 H   0  0  0  0  0  0  0  0  0  0  0  0
    1.8571    0.6050    1.1029 H   0  0  0  0  0  0  0  0  0  0  0  0
    1.7646    1.3276   -0.5212 H   0  0  0  0  0  0  0  0  0  0  0  0
    0.6546   -0.7725   -1.3395 H   0  0  0  0  0  0  0  0  0  0  0  0
   -0.1997   -2.3696    0.3540 H   0  0  0  0  0  0  0  0  0  0  0  0
    1.5786   -2.2989    0.3823 H   0  0  0  0  0  0  0  0  0  0  0  0
    0.6344   -1.4576    1.6349 H   0  0  0  0  0  0  0  0  0  0  0  0
   -3.0068    0.7908    1.1195 H   0  0  0  0  0  0  0  0  0  0  0  0
   -3.0044    1.4004   -0.5528 H   0  0  0  0  0  0  0  0  0  0  0  0
   -5.1532    0.2859   -0.0149 H   0  0  0  0  0  0  0  0  0  0  0  0
   -4.2740   -0.6002   -1.2839 H   0  0  0  0  0  0  0  0  0  0  0  0
   -4.2765   -1.2098    0.3885 H   0  0  0  0  0  0  0  0  0  0  0  0
  1  2  1  0  0  0  0
  2  3  1  0  0  0  0
  3  4  1  0  0  0  0
  4  5  1  0  0  0  0
  4  6  1  0  0  0  0
  6  7  2  0  0  0  0
  6  8  1  0  0  0  0
  8  9  1  0  0  0  0
  9 10  1  0  0  0  0
  1 11  1  0  0  0  0
  1 12  1  0  0  0  0
  1 13  1  0  0  0  0
  2 14  1  0  0  0  0
  2 15  1  0  0  0  0
  3 16  1  0  0  0  0
  3 17  1  0  0  0  0
  4 18  1  0  0  0  0
  5 19  1  0  0  0  0
  5 20  1  0  0  0  0
  5 21  1  0  0  0  0
  9 22  1  0  0  0  0
  9 23  1  0  0  0  0
 10 24  1  0  0  0  0
 10 25  1  0  0  0  0
 10 26  1  0  0  0  0
M  END
$$$$
