CH4S
APtclcactv05262212103D 0   0.00000     0.00000
 
  6  5  0  0  0  0  0  0  0  0999 V2000
    1.2308   -0.0145   -0.0000 C   0  0  0  0  0  0  0  0  0  0  0  0
   -0.5822    0.0473   -0.0000 S   0  0  0  0  0  0  0  0  0  0  0  0
    1.5764   -0.5404    0.8900 H   0  0  0  0  0  0  0  0  0  0  0  0
    1.5764   -0.5404   -0.8900 H   0  0  0  0  0  0  0  0  0  0  0  0
    1.6289    1.0002   -0.0000 H   0  0  0  0  0  0  0  0  0  0  0  0
   -0.9292   -1.2521    0.0000 H   0  0  0  0  0  0  0  0  0  0  0  0
  1  2  1  0  0  0  0
  1  3  1  0  0  0  0
  1  4  1  0  0  0  0
  1  5  1  0  0  0  0
  2  6  1  0  0  0  0
M  END
$$$$
