C8H8O2
APtclcactv05262212103D 0   0.00000     0.00000
 
 18 18  0  0  0  0  0  0  0  0999 V2000
    3.4677    0.5116   -0.0006 C   0  0  0  0  0  0  0  0  0  0  0  0
    2.0398    0.7751   -0.0009 O   0  0  0  0  0  0  0  0  0  0  0  0
    1.2206   -0.2943   -0.0002 C   0  0  0  0  0  0  0  0  0  0  0  0
    1.6863   -1.4162    0.0006 O   0  0  0  0  0  0  0  0  0  0  0  0
   -0.2442   -0.1027   -0.0005 C   0  0  0  0  0  0  0  0  0  0  0  0
   -1.0962   -1.2089    0.0002 C   0  0  0  0  0  0  0  0  0  0  0  0
   -2.4630   -1.0227   -0.0000 C   0  0  0  0  0  0  0  0  0  0  0  0
   -2.9902    0.2566   -0.0010 C   0  0  0  0  0  0  0  0  0  0  0  0
   -2.1516    1.3573   -0.0017 C   0  0  0  0  0  0  0  0  0  0  0  0
   -0.7829    1.1855    0.0044 C   0  0  0  0  0  0  0  0  0  0  0  0
    4.0115    1.4563   -0.0012 H   0  0  0  0  0  0  0  0  0  0  0  0
    3.7317   -0.0590    0.8898 H   0  0  0  0  0  0  0  0  0  0  0  0
    3.7318   -0.0603   -0.8902 H   0  0  0  0  0  0  0  0  0  0  0  0
   -0.6861   -2.2080    0.0006 H   0  0  0  0  0  0  0  0  0  0  0  0
   -3.1232   -1.8774    0.0001 H   0  0  0  0  0  0  0  0  0  0  0  0
   -4.0611    0.3967   -0.0016 H   0  0  0  0  0  0  0  0  0  0  0  0
   -2.5697    2.3531   -0.0028 H   0  0  0  0  0  0  0  0  0  0  0  0
   -0.1295    2.0454    0.0039 H   0  0  0  0  0  0  0  0  0  0  0  0
  1  2  1  0  0  0  0
  2  3  1  0  0  0  0
  3  4  2  0  0  0  0
  3  5  1  0  0  0  0
  5  6  2  0  0  0  0
  6  7  1  0  0  0  0
  7  8  2  0  0  0  0
  8  9  1  0  0  0  0
  9 10  2  0  0  0  0
  5 10  1  0  0  0  0
  1 11  1  0  0  0  0
  1 12  1  0  0  0  0
  1 13  1  0  0  0  0
  6 14  1  0  0  0  0
  7 15  1  0  0  0  0
  8 16  1  0  0  0  0
  9 17  1  0  0  0  0
 10 18  1  0  0  0  0
M  END
$$$$
