C7H14O2
APtclcactv05262212103D 0   0.00000     0.00000
 
 23 22  0  0  0  0  0  0  0  0999 V2000
    4.6934   -0.3479   -0.0000 C   0  0  0  0  0  0  0  0  0  0  0  0
    3.4516    0.5460    0.0000 C   0  0  0  0  0  0  0  0  0  0  0  0
    2.1950   -0.3268   -0.0000 C   0  0  0  0  0  0  0  0  0  0  0  0
    0.9532    0.5671    0.0000 C   0  0  0  0  0  0  0  0  0  0  0  0
   -0.3034   -0.3056   -0.0000 C   0  0  0  0  0  0  0  0  0  0  0  0
   -1.4818    0.5427   -0.0000 O   0  0  0  0  0  0  0  0  0  0  0  0
   -2.6752   -0.0719    0.0000 C   0  0  0  0  0  0  0  0  0  0  0  0
   -2.7331   -1.2788    0.0000 O   0  0  0  0  0  0  0  0  0  0  0  0
   -3.9426    0.7434   -0.0000 C   0  0  0  0  0  0  0  0  0  0  0  0
    4.6880   -0.9772    0.8900 H   0  0  0  0  0  0  0  0  0  0  0  0
    4.6880   -0.9772   -0.8900 H   0  0  0  0  0  0  0  0  0  0  0  0
    5.5886    0.2738    0.0000 H   0  0  0  0  0  0  0  0  0  0  0  0
    3.4570    1.1753    0.8900 H   0  0  0  0  0  0  0  0  0  0  0  0
    3.4570    1.1753   -0.8900 H   0  0  0  0  0  0  0  0  0  0  0  0
    2.1896   -0.9561   -0.8900 H   0  0  0  0  0  0  0  0  0  0  0  0
    2.1896   -0.9561    0.8900 H   0  0  0  0  0  0  0  0  0  0  0  0
    0.9586    1.1964    0.8900 H   0  0  0  0  0  0  0  0  0  0  0  0
    0.9586    1.1964   -0.8900 H   0  0  0  0  0  0  0  0  0  0  0  0
   -0.3088   -0.9349   -0.8900 H   0  0  0  0  0  0  0  0  0  0  0  0
   -0.3088   -0.9349    0.8900 H   0  0  0  0  0  0  0  0  0  0  0  0
   -4.2482    0.9399   -1.0277 H   0  0  0  0  0  0  0  0  0  0  0  0
   -4.7296    0.1914    0.5138 H   0  0  0  0  0  0  0  0  0  0  0  0
   -3.7667    1.6884    0.5138 H   0  0  0  0  0  0  0  0  0  0  0  0
  1  2  1  0  0  0  0
  2  3  1  0  0  0  0
  3  4  1  0  0  0  0
  4  5  1  0  0  0  0
  5  6  1  0  0  0  0
  6  7  1  0  0  0  0
  7  8  2  0  0  0  0
  7  9  1  0  0  0  0
  1 10  1  0  0  0  0
  1 11  1  0  0  0  0
  1 12  1  0  0  0  0
  2 13  1  0  0  0  0
  2 14  1  0  0  0  0
  3 15  1  0  0  0  0
  3 16  1  0  0  0  0
  4 17  1  0  0  0  0
  4 18  1  0  0  0  0
  5 19  1  0  0  0  0
  5 20  1  0  0  0  0
  9 21  1  0  0  0  0
  9 22  1  0  0  0  0
  9 23  1  0  0  0  0
M  END
$$$$
