C8H16O2
APtclcactv05262212103D 0   0.00000     0.00000
 
 26 25  0  0  0  0  0  0  0  0999 V2000
    5.4345   -0.2207   -0.0000 C   0  0  0  0  0  0  0  0  0  0  0  0
    4.1271    0.5741    0.0000 C   0  0  0  0  0  0  0  0  0  0  0  0
    2.9420   -0.3937   -0.0000 C   0  0  0  0  0  0  0  0  0  0  0  0
    1.6346    0.4011    0.0000 C   0  0  0  0  0  0  0  0  0  0  0  0
    0.4495   -0.5666   -0.0000 C   0  0  0  0  0  0  0  0  0  0  0  0
   -0.8579    0.2281    0.0000 C   0  0  0  0  0  0  0  0  0  0  0  0
   -2.0430   -0.7396    0.0000 C   0  0  0  0  0  0  0  0  0  0  0  0
   -3.3307    0.0432   -0.0000 C   0  0  0  0  0  0  0  0  0  0  0  0
   -4.5080   -0.6015    0.0000 O   0  0  0  0  0  0  0  0  0  0  0  0
   -3.3034    1.2511   -0.0000 O   0  0  0  0  0  0  0  0  0  0  0  0
    6.2787    0.4687    0.0000 H   0  0  0  0  0  0  0  0  0  0  0  0
    5.4780   -0.8485    0.8900 H   0  0  0  0  0  0  0  0  0  0  0  0
    5.4780   -0.8485   -0.8900 H   0  0  0  0  0  0  0  0  0  0  0  0
    4.0835    1.2019    0.8900 H   0  0  0  0  0  0  0  0  0  0  0  0
    4.0835    1.2019   -0.8900 H   0  0  0  0  0  0  0  0  0  0  0  0
    2.9856   -1.0215   -0.8900 H   0  0  0  0  0  0  0  0  0  0  0  0
    2.9856   -1.0215    0.8900 H   0  0  0  0  0  0  0  0  0  0  0  0
    1.5910    1.0289    0.8900 H   0  0  0  0  0  0  0  0  0  0  0  0
    1.5910    1.0289   -0.8900 H   0  0  0  0  0  0  0  0  0  0  0  0
    0.4931   -1.1944   -0.8900 H   0  0  0  0  0  0  0  0  0  0  0  0
    0.4931   -1.1944    0.8900 H   0  0  0  0  0  0  0  0  0  0  0  0
   -0.9015    0.8559    0.8900 H   0  0  0  0  0  0  0  0  0  0  0  0
   -0.9015    0.8559   -0.8900 H   0  0  0  0  0  0  0  0  0  0  0  0
   -1.9994   -1.3674   -0.8900 H   0  0  0  0  0  0  0  0  0  0  0  0
   -1.9994   -1.3674    0.8900 H   0  0  0  0  0  0  0  0  0  0  0  0
   -5.3069   -0.0567   -0.0000 H   0  0  0  0  0  0  0  0  0  0  0  0
  1  2  1  0  0  0  0
  2  3  1  0  0  0  0
  3  4  1  0  0  0  0
  4  5  1  0  0  0  0
  5  6  1  0  0  0  0
  6  7  1  0  0  0  0
  7  8  1  0  0  0  0
  8  9  1  0  0  0  0
  8 10  2  0  0  0  0
  1 11  1  0  0  0  0
  1 12  1  0  0  0  0
  1 13  1  0  0  0  0
  2 14  1  0  0  0  0
  2 15  1  0  0  0  0
  3 16  1  0  0  0  0
  3 17  1  0  0  0  0
  4 18  1  0  0  0  0
  4 19  1  0  0  0  0
  5 20  1  0  0  0  0
  5 21  1  0  0  0  0
  6 22  1  0  0  0  0
  6 23  1  0  0  0  0
  7 24  1  0  0  0  0
  7 25  1  0  0  0  0
  9 26  1  0  0  0  0
M  END
$$$$
