C8H16O
APtclcactv05262212103D 0   0.00000     0.00000
 
 25 24  0  0  0  0  0  0  0  0999 V2000
    4.9584   -0.2635   -0.1320 C   0  0  0  0  0  0  0  0  0  0  0  0
    3.6749    0.5667   -0.0642 C   0  0  0  0  0  0  0  0  0  0  0  0
    2.4647   -0.3682   -0.0171 C   0  0  0  0  0  0  0  0  0  0  0  0
    1.1813    0.4619    0.0506 C   0  0  0  0  0  0  0  0  0  0  0  0
   -0.0289   -0.4730    0.0977 C   0  0  0  0  0  0  0  0  0  0  0  0
   -1.3123    0.3572    0.1655 C   0  0  0  0  0  0  0  0  0  0  0  0
   -2.5226   -0.5777    0.2126 C   0  0  0  0  0  0  0  0  0  0  0  0
   -3.7867    0.2400    0.2793 C   0  0  0  0  0  0  0  0  0  0  0  0
   -4.6583    0.0722   -0.5395 O   0  0  0  0  0  0  0  0  0  0  0  0
    5.8205    0.4025   -0.1655 H   0  0  0  0  0  0  0  0  0  0  0  0
    5.0257   -0.9009    0.7496 H   0  0  0  0  0  0  0  0  0  0  0  0
    4.9431   -0.8835   -1.0283 H   0  0  0  0  0  0  0  0  0  0  0  0
    3.6902    1.1867    0.8321 H   0  0  0  0  0  0  0  0  0  0  0  0
    3.6076    1.2041   -0.9458 H   0  0  0  0  0  0  0  0  0  0  0  0
    2.4495   -0.9883   -0.9135 H   0  0  0  0  0  0  0  0  0  0  0  0
    2.5321   -1.0057    0.8645 H   0  0  0  0  0  0  0  0  0  0  0  0
    1.1966    1.0820    0.9470 H   0  0  0  0  0  0  0  0  0  0  0  0
    1.1139    1.0994   -0.8310 H   0  0  0  0  0  0  0  0  0  0  0  0
   -0.0442   -1.0930   -0.7986 H   0  0  0  0  0  0  0  0  0  0  0  0
    0.0384   -1.1104    0.9793 H   0  0  0  0  0  0  0  0  0  0  0  0
   -1.2971    0.9772    1.0618 H   0  0  0  0  0  0  0  0  0  0  0  0
   -1.3797    0.9946   -0.7161 H   0  0  0  0  0  0  0  0  0  0  0  0
   -2.5378   -1.1977   -0.6838 H   0  0  0  0  0  0  0  0  0  0  0  0
   -2.4552   -1.2151    1.0942 H   0  0  0  0  0  0  0  0  0  0  0  0
   -3.9131    0.9761    1.0594 H   0  0  0  0  0  0  0  0  0  0  0  0
  1  2  1  0  0  0  0
  2  3  1  0  0  0  0
  3  4  1  0  0  0  0
  4  5  1  0  0  0  0
  5  6  1  0  0  0  0
  6  7  1  0  0  0  0
  7  8  1  0  0  0  0
  8  9  2  0  0  0  0
  1 10  1  0  0  0  0
  1 11  1  0  0  0  0
  1 12  1  0  0  0  0
  2 13  1  0  0  0  0
  2 14  1  0  0  0  0
  3 15  1  0  0  0  0
  3 16  1  0  0  0  0
  4 17  1  0  0  0  0
  4 18  1  0  0  0  0
  5 19  1  0  0  0  0
  5 20  1  0  0  0  0
  6 21  1  0  0  0  0
  6 22  1  0  0  0  0
  7 23  1  0  0  0  0
  7 24  1  0  0  0  0
  8 25  1  0  0  0  0
M  END
$$$$
