C8H8O2
APtclcactv05262212113D 0   0.00000     0.00000
 
 18 18  0  0  0  0  0  0  0  0999 V2000
    3.3926    0.9303   -0.0013 C   0  0  0  0  0  0  0  0  0  0  0  0
    2.7144   -0.3275   -0.0004 O   0  0  0  0  0  0  0  0  0  0  0  0
    1.3582   -0.2960   -0.0006 C   0  0  0  0  0  0  0  0  0  0  0  0
    0.6374   -1.4854    0.0002 C   0  0  0  0  0  0  0  0  0  0  0  0
   -0.7335   -1.4590    0.0005 C   0  0  0  0  0  0  0  0  0  0  0  0
   -1.4078   -0.2317   -0.0001 C   0  0  0  0  0  0  0  0  0  0  0  0
   -0.6772    0.9631   -0.0009 C   0  0  0  0  0  0  0  0  0  0  0  0
    0.6934    0.9257    0.0042 C   0  0  0  0  0  0  0  0  0  0  0  0
   -2.8760   -0.1975   -0.0003 C   0  0  0  0  0  0  0  0  0  0  0  0
   -3.4579    0.8667   -0.0008 O   0  0  0  0  0  0  0  0  0  0  0  0
    4.4696    0.7624   -0.0010 H   0  0  0  0  0  0  0  0  0  0  0  0
    3.1129    1.4933   -0.8917 H   0  0  0  0  0  0  0  0  0  0  0  0
    3.1127    1.4947    0.8882 H   0  0  0  0  0  0  0  0  0  0  0  0
    1.1583   -2.4314    0.0003 H   0  0  0  0  0  0  0  0  0  0  0  0
   -1.2924   -2.3832    0.0008 H   0  0  0  0  0  0  0  0  0  0  0  0
   -1.1925    1.9122   -0.0017 H   0  0  0  0  0  0  0  0  0  0  0  0
    1.2578    1.8465    0.0035 H   0  0  0  0  0  0  0  0  0  0  0  0
   -3.4376   -1.1200    0.0000 H   0  0  0  0  0  0  0  0  0  0  0  0
  1  2  1  0  0  0  0
  2  3  1  0  0  0  0
  3  4  2  0  0  0  0
  4  5  1  0  0  0  0
  5  6  2  0  0  0  0
  6  7  1  0  0  0  0
  7  8  2  0  0  0  0
  3  8  1  0  0  0  0
  6  9  1  0  0  0  0
  9 10  2  0  0  0  0
  1 11  1  0  0  0  0
  1 12  1  0  0  0  0
  1 13  1  0  0  0  0
  4 14  1  0  0  0  0
  5 15  1  0  0  0  0
  7 16  1  0  0  0  0
  8 17  1  0  0  0  0
  9 18  1  0  0  0  0
M  END
$$$$
