C7H8O
APtclcactv05262212093D 0   0.00000     0.00000
 
 16 16  0  0  0  0  0  0  0  0999 V2000
    2.6368   -0.0009   -0.6732 O   0  0  0  0  0  0  0  0  0  0  0  0
    1.9216    0.0011    0.5639 C   0  0  0  0  0  0  0  0  0  0  0  0
    0.4401    0.0005    0.2877 C   0  0  0  0  0  0  0  0  0  0  0  0
   -0.2392   -1.1969    0.1630 C   0  0  0  0  0  0  0  0  0  0  0  0
   -1.5982   -1.1974   -0.0904 C   0  0  0  0  0  0  0  0  0  0  0  0
   -2.2778   -0.0006   -0.2187 C   0  0  0  0  0  0  0  0  0  0  0  0
   -1.5986    1.1969   -0.0930 C   0  0  0  0  0  0  0  0  0  0  0  0
   -0.2405    1.1974    0.1647 C   0  0  0  0  0  0  0  0  0  0  0  0
    3.5984   -0.0006   -0.5716 H   0  0  0  0  0  0  0  0  0  0  0  0
    2.1847   -0.8879    1.1371 H   0  0  0  0  0  0  0  0  0  0  0  0
    2.1845    0.8920    1.1342 H   0  0  0  0  0  0  0  0  0  0  0  0
    0.2918   -2.1320    0.2632 H   0  0  0  0  0  0  0  0  0  0  0  0
   -2.1288   -2.1330   -0.1886 H   0  0  0  0  0  0  0  0  0  0  0  0
   -3.3394   -0.0010   -0.4174 H   0  0  0  0  0  0  0  0  0  0  0  0
   -2.1296    2.1320   -0.1936 H   0  0  0  0  0  0  0  0  0  0  0  0
    0.2901    2.1329    0.2628 H   0  0  0  0  0  0  0  0  0  0  0  0
  1  2  1  0  0  0  0
  2  3  1  0  0  0  0
  3  4  1  0  0  0  0
  4  5  2  0  0  0  0
  5  6  1  0  0  0  0
  6  7  2  0  0  0  0
  7  8  1  0  0  0  0
  3  8  2  0  0  0  0
  1  9  1  0  0  0  0
  2 10  1  0  0  0  0
  2 11  1  0  0  0  0
  4 12  1  0  0  0  0
  5 13  1  0  0  0  0
  6 14  1  0  0  0  0
  7 15  1  0  0  0  0
  8 16  1  0  0  0  0
M  END
$$$$
