C8H6O3
APtclcactv05262212103D 0   0.00000     0.00000
 
 17 18  0  0  0  0  0  0  0  0999 V2000
   -3.8156    0.0567   -0.0625 O   0  0  0  0  0  0  0  0  0  0  0  0
   -2.8886   -0.7248   -0.0263 C   0  0  0  0  0  0  0  0  0  0  0  0
   -1.5078   -0.2253    0.0041 C   0  0  0  0  0  0  0  0  0  0  0  0
   -1.2589    1.1525   -0.0086 C   0  0  0  0  0  0  0  0  0  0  0  0
    0.0362    1.6177    0.0199 C   0  0  0  0  0  0  0  0  0  0  0  0
    1.1001    0.7247    0.0615 C   0  0  0  0  0  0  0  0  0  0  0  0
    2.4472    0.9305    0.0957 O   0  0  0  0  0  0  0  0  0  0  0  0
    3.0392   -0.3256   -0.2841 C   0  0  0  0  0  0  0  0  0  0  0  0
    2.0593   -1.3016    0.1161 O   0  0  0  0  0  0  0  0  0  0  0  0
    0.8597   -0.6507    0.0743 C   0  0  0  0  0  0  0  0  0  0  0  0
   -0.4362   -1.1252    0.0517 C   0  0  0  0  0  0  0  0  0  0  0  0
   -3.0787   -1.7878   -0.0120 H   0  0  0  0  0  0  0  0  0  0  0  0
   -2.0828    1.8500   -0.0412 H   0  0  0  0  0  0  0  0  0  0  0  0
    0.2263    2.6808    0.0097 H   0  0  0  0  0  0  0  0  0  0  0  0
    3.1991   -0.3632   -1.3616 H   0  0  0  0  0  0  0  0  0  0  0  0
    3.9768   -0.4836    0.2489 H   0  0  0  0  0  0  0  0  0  0  0  0
   -0.6232   -2.1887    0.0681 H   0  0  0  0  0  0  0  0  0  0  0  0
  1  2  2  0  0  0  0
  2  3  1  0  0  0  0
  3  4  1  0  0  0  0
  4  5  2  0  0  0  0
  5  6  1  0  0  0  0
  6  7  1  0  0  0  0
  7  8  1  0  0  0  0
  8  9  1  0  0  0  0
  9 10  1  0  0  0  0
  6 10  2  0  0  0  0
 10 11  1  0  0  0  0
  3 11  2  0  0  0  0
  2 12  1  0  0  0  0
  4 13  1  0  0  0  0
  5 14  1  0  0  0  0
  8 15  1  0  0  0  0
  8 16  1  0  0  0  0
 11 17  1  0  0  0  0
M  END
$$$$
