C11H12O3
APtclcactv05262212113D 0   0.00000     0.00000
 
 26 27  0  0  0  0  0  0  0  0999 V2000
    4.9033   -0.6079    1.2595 C   0  0  0  0  0  0  0  0  0  0  0  0
    3.9244   -0.2322    0.1772 C   0  0  0  0  0  0  0  0  0  0  0  0
    4.3158   -0.0286   -0.9469 O   0  0  0  0  0  0  0  0  0  0  0  0
    2.4568   -0.1106    0.4976 C   0  0  0  0  0  0  0  0  0  0  0  0
    1.6892    0.2786   -0.7674 C   0  0  0  0  0  0  0  0  0  0  0  0
    0.2217    0.4002   -0.4469 C   0  0  0  0  0  0  0  0  0  0  0  0
   -0.2965    1.6146   -0.0369 C   0  0  0  0  0  0  0  0  0  0  0  0
   -1.6420    1.7313    0.2577 C   0  0  0  0  0  0  0  0  0  0  0  0
   -2.4751    0.6302    0.1426 C   0  0  0  0  0  0  0  0  0  0  0  0
   -3.8129    0.4800    0.3680 O   0  0  0  0  0  0  0  0  0  0  0  0
   -4.0263   -0.9393    0.4830 C   0  0  0  0  0  0  0  0  0  0  0  0
   -2.9639   -1.5098   -0.3039 O   0  0  0  0  0  0  0  0  0  0  0  0
   -1.9531   -0.5931   -0.2705 C   0  0  0  0  0  0  0  0  0  0  0  0
   -0.6045   -0.7013   -0.5691 C   0  0  0  0  0  0  0  0  0  0  0  0
    5.2710    0.2953    1.7464 H   0  0  0  0  0  0  0  0  0  0  0  0
    4.4066   -1.2406    1.9951 H   0  0  0  0  0  0  0  0  0  0  0  0
    5.7405   -1.1503    0.8200 H   0  0  0  0  0  0  0  0  0  0  0  0
    2.0855   -1.0660    0.8684 H   0  0  0  0  0  0  0  0  0  0  0  0
    2.3136    0.6554    1.2597 H   0  0  0  0  0  0  0  0  0  0  0  0
    2.0605    1.2340   -1.1382 H   0  0  0  0  0  0  0  0  0  0  0  0
    1.8324   -0.4874   -1.5295 H   0  0  0  0  0  0  0  0  0  0  0  0
    0.3514    2.4739    0.0538 H   0  0  0  0  0  0  0  0  0  0  0  0
   -2.0441    2.6811    0.5781 H   0  0  0  0  0  0  0  0  0  0  0  0
   -3.9452   -1.2558    1.5229 H   0  0  0  0  0  0  0  0  0  0  0  0
   -4.9976   -1.2151    0.0723 H   0  0  0  0  0  0  0  0  0  0  0  0
   -0.1980   -1.6475   -0.8946 H   0  0  0  0  0  0  0  0  0  0  0  0
  1  2  1  0  0  0  0
  2  3  2  0  0  0  0
  2  4  1  0  0  0  0
  4  5  1  0  0  0  0
  5  6  1  0  0  0  0
  6  7  1  0  0  0  0
  7  8  2  0  0  0  0
  8  9  1  0  0  0  0
  9 10  1  0  0  0  0
 10 11  1  0  0  0  0
 11 12  1  0  0  0  0
 12 13  1  0  0  0  0
  9 13  2  0  0  0  0
 13 14  1  0  0  0  0
  6 14  2  0  0  0  0
  1 15  1  0  0  0  0
  1 16  1  0  0  0  0
  1 17  1  0  0  0  0
  4 18  1  0  0  0  0
  4 19  1  0  0  0  0
  5 20  1  0  0  0  0
  5 21  1  0  0  0  0
  7 22  1  0  0  0  0
  8 23  1  0  0  0  0
 11 24  1  0  0  0  0
 11 25  1  0  0  0  0
 14 26  1  0  0  0  0
M  END
$$$$
