C10H12O2
APtclcactv05262212113D 0   0.00000     0.00000
 
 24 24  0  0  1  0  0  0  0  0999 V2000
    2.9067    1.7158    0.1644 C   0  0  0  0  0  0  0  0  0  0  0  0
    1.4410    1.5304   -0.2335 C   0  0  0  0  0  0  0  0  0  0  0  0
    0.8575    0.3300    0.5145 C   0  0  1  0  0  0  0  0  0  0  0  0
    1.0032    0.4640    1.5864 H   0  0  0  0  0  0  0  0  0  0  0  0
   -0.6160    0.2212    0.2177 C   0  0  0  0  0  0  0  0  0  0  0  0
   -1.5358    0.2967    1.2468 C   0  0  0  0  0  0  0  0  0  0  0  0
   -2.8874    0.1968    0.9745 C   0  0  0  0  0  0  0  0  0  0  0  0
   -3.3192    0.0218   -0.3270 C   0  0  0  0  0  0  0  0  0  0  0  0
   -2.3994   -0.0528   -1.3562 C   0  0  0  0  0  0  0  0  0  0  0  0
   -1.0481    0.0514   -1.0844 C   0  0  0  0  0  0  0  0  0  0  0  0
    1.5545   -0.9286    0.0661 C   0  0  0  0  0  0  0  0  0  0  0  0
    2.4285   -0.8714   -0.7662 O   0  0  0  0  0  0  0  0  0  0  0  0
    1.2046   -2.1131    0.5915 O   0  0  0  0  0  0  0  0  0  0  0  0
    2.9724    1.8900    1.2384 H   0  0  0  0  0  0  0  0  0  0  0  0
    3.4694    0.8185   -0.0932 H   0  0  0  0  0  0  0  0  0  0  0  0
    3.3225    2.5709   -0.3685 H   0  0  0  0  0  0  0  0  0  0  0  0
    0.8783    2.4276    0.0241 H   0  0  0  0  0  0  0  0  0  0  0  0
    1.3754    1.3562   -1.3075 H   0  0  0  0  0  0  0  0  0  0  0  0
   -1.1985    0.4334    2.2636 H   0  0  0  0  0  0  0  0  0  0  0  0
   -3.6060    0.2551    1.7787 H   0  0  0  0  0  0  0  0  0  0  0  0
   -4.3751   -0.0570   -0.5396 H   0  0  0  0  0  0  0  0  0  0  0  0
   -2.7367   -0.1899   -2.3730 H   0  0  0  0  0  0  0  0  0  0  0  0
   -0.3295   -0.0068   -1.8885 H   0  0  0  0  0  0  0  0  0  0  0  0
    1.6800   -2.8925    0.2727 H   0  0  0  0  0  0  0  0  0  0  0  0
  1  2  1  0  0  0  0
  2  3  1  0  0  0  0
  3  4  1  0  0  0  0
  3  5  1  0  0  0  0
  5  6  2  0  0  0  0
  6  7  1  0  0  0  0
  7  8  2  0  0  0  0
  8  9  1  0  0  0  0
  9 10  2  0  0  0  0
  5 10  1  0  0  0  0
  3 11  1  0  0  0  0
 11 12  2  0  0  0  0
 11 13  1  0  0  0  0
  1 14  1  0  0  0  0
  1 15  1  0  0  0  0
  1 16  1  0  0  0  0
  2 17  1  0  0  0  0
  2 18  1  0  0  0  0
  6 19  1  0  0  0  0
  7 20  1  0  0  0  0
  8 21  1  0  0  0  0
  9 22  1  0  0  0  0
 10 23  1  0  0  0  0
 13 24  1  0  0  0  0
M  END
$$$$
