C10H10O2
APtclcactv05262212103D 0   0.00000     0.00000
 
 22 23  0  0  0  0  0  0  0  0999 V2000
   -4.1034    1.1325    0.6244 C   0  0  0  0  0  0  0  0  0  0  0  0
   -3.3398    0.0696    0.5675 C   0  0  0  0  0  0  0  0  0  0  0  0
   -2.6145   -0.2696   -0.7092 C   0  0  0  0  0  0  0  0  0  0  0  0
   -1.1400   -0.4047   -0.4287 C   0  0  0  0  0  0  0  0  0  0  0  0
   -0.6150   -1.6339   -0.0752 C   0  0  0  0  0  0  0  0  0  0  0  0
    0.7370   -1.7629    0.1827 C   0  0  0  0  0  0  0  0  0  0  0  0
    1.5695   -0.6596    0.0874 C   0  0  0  0  0  0  0  0  0  0  0  0
    2.9127   -0.5194    0.2859 O   0  0  0  0  0  0  0  0  0  0  0  0
    3.1320    0.8945    0.4468 C   0  0  0  0  0  0  0  0  0  0  0  0
    2.0524    1.4944   -0.2933 O   0  0  0  0  0  0  0  0  0  0  0  0
    1.0406    0.5785   -0.2687 C   0  0  0  0  0  0  0  0  0  0  0  0
   -0.3145    0.6993   -0.5309 C   0  0  0  0  0  0  0  0  0  0  0  0
   -4.2132    1.7657   -0.2436 H   0  0  0  0  0  0  0  0  0  0  0  0
   -4.6267    1.3732    1.5380 H   0  0  0  0  0  0  0  0  0  0  0  0
   -3.2300   -0.5635    1.4355 H   0  0  0  0  0  0  0  0  0  0  0  0
   -2.9967   -1.2105   -1.1052 H   0  0  0  0  0  0  0  0  0  0  0  0
   -2.7742    0.5236   -1.4396 H   0  0  0  0  0  0  0  0  0  0  0  0
   -1.2625   -2.4950   -0.0000 H   0  0  0  0  0  0  0  0  0  0  0  0
    1.1444   -2.7242    0.4590 H   0  0  0  0  0  0  0  0  0  0  0  0
    3.0765    1.1734    1.4991 H   0  0  0  0  0  0  0  0  0  0  0  0
    4.0938    1.1836    0.0232 H   0  0  0  0  0  0  0  0  0  0  0  0
   -0.7265    1.6572   -0.8122 H   0  0  0  0  0  0  0  0  0  0  0  0
  1  2  2  0  0  0  0
  2  3  1  0  0  0  0
  3  4  1  0  0  0  0
  4  5  1  0  0  0  0
  5  6  2  0  0  0  0
  6  7  1  0  0  0  0
  7  8  1  0  0  0  0
  8  9  1  0  0  0  0
  9 10  1  0  0  0  0
 10 11  1  0  0  0  0
  7 11  2  0  0  0  0
 11 12  1  0  0  0  0
  4 12  2  0  0  0  0
  1 13  1  0  0  0  0
  1 14  1  0  0  0  0
  2 15  1  0  0  0  0
  3 16  1  0  0  0  0
  3 17  1  0  0  0  0
  5 18  1  0  0  0  0
  6 19  1  0  0  0  0
  9 20  1  0  0  0  0
  9 21  1  0  0  0  0
 12 22  1  0  0  0  0
M  END
$$$$
