C14H26O
APtclcactv05262212113D 0   0.00000     0.00000
 
 41 41  0  0  0  0  0  0  0  0999 V2000
    5.1157   -0.2262   -0.3808 C   0  0  0  0  0  0  0  0  0  0  0  0
    3.8663    0.3592    0.2803 C   0  0  0  0  0  0  0  0  0  0  0  0
    3.7363    1.7354   -0.0816 O   0  0  0  0  0  0  0  0  0  0  0  0
    2.6313   -0.4110   -0.1914 C   0  0  0  0  0  0  0  0  0  0  0  0
    2.7704   -1.8846    0.1961 C   0  0  0  0  0  0  0  0  0  0  0  0
    1.3818    0.1744    0.4697 C   0  0  0  0  0  0  0  0  0  0  0  0
    0.1367   -0.5121   -0.0954 C   0  0  0  0  0  0  0  0  0  0  0  0
   -1.1127    0.0733    0.5658 C   0  0  0  0  0  0  0  0  0  0  0  0
   -1.3086    1.5549    0.1685 C   0  0  0  0  0  0  0  0  0  0  0  0
   -2.8038    1.7198    0.0256 C   0  0  0  0  0  0  0  0  0  0  0  0
   -3.3973    0.5613   -0.0704 C   0  0  0  0  0  0  0  0  0  0  0  0
   -4.8850    0.3758   -0.2242 C   0  0  0  0  0  0  0  0  0  0  0  0
   -2.3970   -0.5694   -0.0075 C   0  0  0  0  0  0  0  0  0  0  0  0
   -2.1345   -1.1272   -1.4079 C   0  0  0  0  0  0  0  0  0  0  0  0
   -2.9004   -1.6753    0.9223 C   0  0  0  0  0  0  0  0  0  0  0  0
    5.9955    0.3225   -0.0447 H   0  0  0  0  0  0  0  0  0  0  0  0
    5.2148   -1.2760   -0.1048 H   0  0  0  0  0  0  0  0  0  0  0  0
    5.0269   -0.1422   -1.4639 H   0  0  0  0  0  0  0  0  0  0  0  0
    3.9551    0.2751    1.3635 H   0  0  0  0  0  0  0  0  0  0  0  0
    3.6526    1.8857   -1.0331 H   0  0  0  0  0  0  0  0  0  0  0  0
    2.5425   -0.3270   -1.2745 H   0  0  0  0  0  0  0  0  0  0  0  0
    2.8593   -1.9687    1.2792 H   0  0  0  0  0  0  0  0  0  0  0  0
    1.8906   -2.4333   -0.1400 H   0  0  0  0  0  0  0  0  0  0  0  0
    3.6606   -2.3016   -0.2749 H   0  0  0  0  0  0  0  0  0  0  0  0
    1.4299    0.0107    1.5463 H   0  0  0  0  0  0  0  0  0  0  0  0
    1.3307    1.2441    0.2668 H   0  0  0  0  0  0  0  0  0  0  0  0
    0.0886   -0.3484   -1.1719 H   0  0  0  0  0  0  0  0  0  0  0  0
    0.1878   -1.5818    0.1076 H   0  0  0  0  0  0  0  0  0  0  0  0
   -1.0685   -0.0387    1.6491 H   0  0  0  0  0  0  0  0  0  0  0  0
   -0.9271    2.2113    0.9505 H   0  0  0  0  0  0  0  0  0  0  0  0
   -0.8114    1.7628   -0.7790 H   0  0  0  0  0  0  0  0  0  0  0  0
   -3.3143    2.6713    0.0059 H   0  0  0  0  0  0  0  0  0  0  0  0
   -5.3728    1.3504   -0.2411 H   0  0  0  0  0  0  0  0  0  0  0  0
   -5.0911   -0.1499   -1.1565 H   0  0  0  0  0  0  0  0  0  0  0  0
   -5.2670   -0.2072    0.6138 H   0  0  0  0  0  0  0  0  0  0  0  0
   -1.7619   -0.3309   -2.0522 H   0  0  0  0  0  0  0  0  0  0  0  0
   -1.3926   -1.9236   -1.3485 H   0  0  0  0  0  0  0  0  0  0  0  0
   -3.0618   -1.5246   -1.8204 H   0  0  0  0  0  0  0  0  0  0  0  0
   -3.8358   -2.0785    0.5343 H   0  0  0  0  0  0  0  0  0  0  0  0
   -2.1569   -2.4706    0.9768 H   0  0  0  0  0  0  0  0  0  0  0  0
   -3.0670   -1.2648    1.9182 H   0  0  0  0  0  0  0  0  0  0  0  0
  1  2  1  0  0  0  0
  2  3  1  0  0  0  0
  2  4  1  0  0  0  0
  4  5  1  0  0  0  0
  4  6  1  0  0  0  0
  6  7  1  0  0  0  0
  7  8  1  0  0  0  0
  8  9  1  0  0  0  0
  9 10  1  0  0  0  0
 10 11  2  0  0  0  0
 11 12  1  0  0  0  0
 11 13  1  0  0  0  0
  8 13  1  0  0  0  0
 13 14  1  0  0  0  0
 13 15  1  0  0  0  0
  1 16  1  0  0  0  0
  1 17  1  0  0  0  0
  1 18  1  0  0  0  0
  2 19  1  0  0  0  0
  3 20  1  0  0  0  0
  4 21  1  0  0  0  0
  5 22  1  0  0  0  0
  5 23  1  0  0  0  0
  5 24  1  0  0  0  0
  6 25  1  0  0  0  0
  6 26  1  0  0  0  0
  7 27  1  0  0  0  0
  7 28  1  0  0  0  0
  8 29  1  0  0  0  0
  9 30  1  0  0  0  0
  9 31  1  0  0  0  0
 10 32  1  0  0  0  0
 12 33  1  0  0  0  0
 12 34  1  0  0  0  0
 12 35  1  0  0  0  0
 14 36  1  0  0  0  0
 14 37  1  0  0  0  0
 14 38  1  0  0  0  0
 15 39  1  0  0  0  0
 15 40  1  0  0  0  0
 15 41  1  0  0  0  0
M  END
$$$$
