C5H10O2
APtclcactv05262212103D 0   0.00000     0.00000
 
 17 16  0  0  0  0  0  0  0  0999 V2000
    3.3931   -0.3547   -0.0000 C   0  0  0  0  0  0  0  0  0  0  0  0
    2.1981    0.6008    0.0000 C   0  0  0  0  0  0  0  0  0  0  0  0
    0.8989   -0.2072   -0.0000 C   0  0  0  0  0  0  0  0  0  0  0  0
   -0.2960    0.7483    0.0000 C   0  0  0  0  0  0  0  0  0  0  0  0
   -1.5756   -0.0476    0.0000 C   0  0  0  0  0  0  0  0  0  0  0  0
   -2.7595    0.5850   -0.0000 O   0  0  0  0  0  0  0  0  0  0  0  0
   -1.5360   -1.2552    0.0000 O   0  0  0  0  0  0  0  0  0  0  0  0
    4.3186    0.2210    0.0000 H   0  0  0  0  0  0  0  0  0  0  0  0
    3.3559   -0.9829    0.8900 H   0  0  0  0  0  0  0  0  0  0  0  0
    3.3559   -0.9829   -0.8900 H   0  0  0  0  0  0  0  0  0  0  0  0
    2.2353    1.2291    0.8900 H   0  0  0  0  0  0  0  0  0  0  0  0
    2.2353    1.2291   -0.8900 H   0  0  0  0  0  0  0  0  0  0  0  0
    0.8618   -0.8355   -0.8900 H   0  0  0  0  0  0  0  0  0  0  0  0
    0.8618   -0.8355    0.8900 H   0  0  0  0  0  0  0  0  0  0  0  0
   -0.2588    1.3765    0.8900 H   0  0  0  0  0  0  0  0  0  0  0  0
   -0.2588    1.3765   -0.8900 H   0  0  0  0  0  0  0  0  0  0  0  0
   -3.5528    0.0320    0.0000 H   0  0  0  0  0  0  0  0  0  0  0  0
  1  2  1  0  0  0  0
  2  3  1  0  0  0  0
  3  4  1  0  0  0  0
  4  5  1  0  0  0  0
  5  6  1  0  0  0  0
  5  7  2  0  0  0  0
  1  8  1  0  0  0  0
  1  9  1  0  0  0  0
  1 10  1  0  0  0  0
  2 11  1  0  0  0  0
  2 12  1  0  0  0  0
  3 13  1  0  0  0  0
  3 14  1  0  0  0  0
  4 15  1  0  0  0  0
  4 16  1  0  0  0  0
  6 17  1  0  0  0  0
M  END
$$$$
