C8H8O3
APtclcactv05262212103D 0   0.00000     0.00000
 
 19 19  0  0  0  0  0  0  0  0999 V2000
    2.1157    2.3654   -0.0019 C   0  0  0  0  0  0  0  0  0  0  0  0
    2.2144    0.9399    0.0093 O   0  0  0  0  0  0  0  0  0  0  0  0
    1.0482    0.2402    0.0099 C   0  0  0  0  0  0  0  0  0  0  0  0
   -0.1585    0.9103   -0.0001 C   0  0  0  0  0  0  0  0  0  0  0  0
   -1.3572    0.1864    0.0001 C   0  0  0  0  0  0  0  0  0  0  0  0
   -2.6445    0.8933   -0.0110 C   0  0  0  0  0  0  0  0  0  0  0  0
   -3.6817    0.2645   -0.0108 O   0  0  0  0  0  0  0  0  0  0  0  0
   -1.3249   -1.2133    0.0103 C   0  0  0  0  0  0  0  0  0  0  0  0
   -0.1168   -1.8734    0.0202 C   0  0  0  0  0  0  0  0  0  0  0  0
    1.0719   -1.1544    0.0147 C   0  0  0  0  0  0  0  0  0  0  0  0
    2.2600   -1.8110    0.0240 O   0  0  0  0  0  0  0  0  0  0  0  0
    1.5816    2.6856   -0.8965 H   0  0  0  0  0  0  0  0  0  0  0  0
    1.5743    2.6991    0.8834 H   0  0  0  0  0  0  0  0  0  0  0  0
    3.1157    2.7989   -0.0011 H   0  0  0  0  0  0  0  0  0  0  0  0
   -0.1781    1.9901   -0.0076 H   0  0  0  0  0  0  0  0  0  0  0  0
   -2.6676    1.9730   -0.0192 H   0  0  0  0  0  0  0  0  0  0  0  0
   -2.2474   -1.7749    0.0108 H   0  0  0  0  0  0  0  0  0  0  0  0
   -0.0931   -2.9531    0.0281 H   0  0  0  0  0  0  0  0  0  0  0  0
    2.6059   -2.0108   -0.8567 H   0  0  0  0  0  0  0  0  0  0  0  0
  1  2  1  0  0  0  0
  2  3  1  0  0  0  0
  3  4  1  0  0  0  0
  4  5  2  0  0  0  0
  5  6  1  0  0  0  0
  6  7  2  0  0  0  0
  5  8  1  0  0  0  0
  8  9  2  0  0  0  0
  9 10  1  0  0  0  0
  3 10  2  0  0  0  0
 10 11  1  0  0  0  0
  1 12  1  0  0  0  0
  1 13  1  0  0  0  0
  1 14  1  0  0  0  0
  4 15  1  0  0  0  0
  6 16  1  0  0  0  0
  8 17  1  0  0  0  0
  9 18  1  0  0  0  0
 11 19  1  0  0  0  0
M  END
$$$$
