
 OpenBabel06272214203D

 19 18  0  0  0  0  0  0  0  0999 V2000
    0.9169    0.0374    0.0458 C   0  0  0  0  0  0  0  0  0  0  0  0
    2.4366    0.0447    0.0434 C   0  0  0  0  0  0  0  0  0  0  0  0
    2.9604    1.4083   -0.3901 C   0  0  0  0  0  0  0  0  0  0  0  0
    4.4846    1.4575   -0.4057 C   0  0  0  0  0  0  0  0  0  0  0  0
    4.9763    2.8259   -0.8407 C   0  0  0  0  0  0  0  0  0  0  0  0
    4.2085    3.7447   -1.1328 O   0  0  0  0  0  0  0  0  0  0  0  0
    6.4632    3.0363   -0.9076 C   0  0  0  0  0  0  0  0  0  0  0  0
    0.5400   -0.9409    0.3568 H   0  0  0  0  0  0  0  0  0  0  0  0
    0.5255    0.2544   -0.9536 H   0  0  0  0  0  0  0  0  0  0  0  0
    0.5255    0.7916    0.7364 H   0  0  0  0  0  0  0  0  0  0  0  0
    2.8044   -0.7320   -0.6367 H   0  0  0  0  0  0  0  0  0  0  0  0
    2.8044   -0.1966    1.0472 H   0  0  0  0  0  0  0  0  0  0  0  0
    2.5760    2.1812    0.2878 H   0  0  0  0  0  0  0  0  0  0  0  0
    2.5760    1.6479   -1.3898 H   0  0  0  0  0  0  0  0  0  0  0  0
    4.8784    0.7086   -1.1020 H   0  0  0  0  0  0  0  0  0  0  0  0
    4.8784    1.2481    0.5952 H   0  0  0  0  0  0  0  0  0  0  0  0
    6.9990    2.1288   -0.6191 H   0  0  0  0  0  0  0  0  0  0  0  0
    6.7385    3.8428   -0.2234 H   0  0  0  0  0  0  0  0  0  0  0  0
    6.7385    3.2996   -1.9320 H   0  0  0  0  0  0  0  0  0  0  0  0
  1  2  1  0  0  0  0
  1  8  1  0  0  0  0
  1  9  1  0  0  0  0
  1 10  1  0  0  0  0
  2  3  1  0  0  0  0
  2 11  1  0  0  0  0
  2 12  1  0  0  0  0
  3  4  1  0  0  0  0
  3 13  1  0  0  0  0
  3 14  1  0  0  0  0
  4  5  1  0  0  0  0
  4 15  1  0  0  0  0
  4 16  1  0  0  0  0
  5  6  2  0  0  0  0
  5  7  1  0  0  0  0
  7 17  1  0  0  0  0
  7 18  1  0  0  0  0
  7 19  1  0  0  0  0
M  END
$$$$
