
 OpenBabel06272214203D

 19 19  0  0  0  0  0  0  0  0999 V2000
    0.9158   -0.0603    0.0434 C   0  0  0  0  0  0  0  0  0  0  0  0
    2.4317   -0.0623    0.0746 C   0  0  0  0  0  0  0  0  0  0  0  0
    3.0291    1.2020   -0.5474 C   0  0  0  0  0  0  0  0  0  0  0  0
    4.5598    1.2030   -0.5439 C   0  0  0  0  0  0  0  0  0  0  0  0
    5.3381    0.4579    0.5824 C   0  0  0  0  0  0  0  0  0  0  0  0
    6.4246   -0.0715   -0.3730 C   0  0  0  0  0  0  0  0  0  0  0  0
    5.2939    0.0762   -1.7874 S   0  0  0  0  0  0  0  0  0  0  0  0
    0.5383   -0.9748    0.5146 H   0  0  0  0  0  0  0  0  0  0  0  0
    0.5429   -0.0233   -0.9837 H   0  0  0  0  0  0  0  0  0  0  0  0
    0.5180    0.7944    0.5957 H   0  0  0  0  0  0  0  0  0  0  0  0
    2.8037   -0.9562   -0.4340 H   0  0  0  0  0  0  0  0  0  0  0  0
    2.7342   -0.1342    1.1254 H   0  0  0  0  0  0  0  0  0  0  0  0
    2.6741    2.0712    0.0182 H   0  0  0  0  0  0  0  0  0  0  0  0
    2.6544    1.3341   -1.5715 H   0  0  0  0  0  0  0  0  0  0  0  0
    4.9267    2.2297   -0.6890 H   0  0  0  0  0  0  0  0  0  0  0  0
    4.8088   -0.3677    1.0722 H   0  0  0  0  0  0  0  0  0  0  0  0
    5.7030    1.1094    1.3840 H   0  0  0  0  0  0  0  0  0  0  0  0
    6.7416   -1.0956   -0.1522 H   0  0  0  0  0  0  0  0  0  0  0  0
    7.3112    0.5650   -0.4371 H   0  0  0  0  0  0  0  0  0  0  0  0
  1  2  1  0  0  0  0
  1  8  1  0  0  0  0
  1  9  1  0  0  0  0
  1 10  1  0  0  0  0
  2  3  1  0  0  0  0
  2 11  1  0  0  0  0
  2 12  1  0  0  0  0
  3  4  1  0  0  0  0
  3 13  1  0  0  0  0
  3 14  1  0  0  0  0
  4  5  1  0  0  0  0
  4  7  1  0  0  0  0
  4 15  1  0  0  0  0
  5  6  1  0  0  0  0
  5 16  1  0  0  0  0
  5 17  1  0  0  0  0
  6  7  1  0  0  0  0
  6 18  1  0  0  0  0
  6 19  1  0  0  0  0
M  END
$$$$
