
 OpenBabel06272214203D

 17 17  0  0  0  0  0  0  0  0999 V2000
    0.9700   -0.0848   -0.0537 C   0  0  0  0  0  0  0  0  0  0  0  0
    2.4752   -0.1189   -0.0602 C   0  0  0  0  0  0  0  0  0  0  0  0
    3.1277   -0.5718    0.8803 O   0  0  0  0  0  0  0  0  0  0  0  0
    3.1789    0.3984   -1.2575 C   0  0  0  0  0  0  0  0  0  0  0  0
    4.2948   -0.2847   -1.7546 C   0  0  0  0  0  0  0  0  0  0  0  0
    5.0182    0.2543   -2.8211 C   0  0  0  0  0  0  0  0  0  0  0  0
    4.5979    1.4421   -3.4212 C   0  0  0  0  0  0  0  0  0  0  0  0
    3.4783    2.1147   -2.9332 C   0  0  0  0  0  0  0  0  0  0  0  0
    2.7722    1.5990   -1.8467 C   0  0  0  0  0  0  0  0  0  0  0  0
    0.6028   -0.4825    0.8972 H   0  0  0  0  0  0  0  0  0  0  0  0
    0.5868   -0.7127   -0.8626 H   0  0  0  0  0  0  0  0  0  0  0  0
    0.5954    0.9361   -0.1529 H   0  0  0  0  0  0  0  0  0  0  0  0
    4.6051   -1.2301   -1.3138 H   0  0  0  0  0  0  0  0  0  0  0  0
    5.9186   -0.2418   -3.1761 H   0  0  0  0  0  0  0  0  0  0  0  0
    5.1488    1.8497   -4.2656 H   0  0  0  0  0  0  0  0  0  0  0  0
    3.1679    3.0544   -3.3830 H   0  0  0  0  0  0  0  0  0  0  0  0
    1.9320    2.1616   -1.4524 H   0  0  0  0  0  0  0  0  0  0  0  0
  1  2  1  0  0  0  0
  1 10  1  0  0  0  0
  1 11  1  0  0  0  0
  1 12  1  0  0  0  0
  2  3  2  0  0  0  0
  2  4  1  0  0  0  0
  4  5  2  0  0  0  0
  4  9  1  0  0  0  0
  5  6  1  0  0  0  0
  5 13  1  0  0  0  0
  6  7  2  0  0  0  0
  6 14  1  0  0  0  0
  7  8  1  0  0  0  0
  7 15  1  0  0  0  0
  8  9  2  0  0  0  0
  8 16  1  0  0  0  0
  9 17  1  0  0  0  0
M  END
$$$$
