
 OpenBabel06272214203D

 34 34  0  0  0  0  0  0  0  0999 V2000
    0.9998   -0.0898   -0.0392 C   0  0  0  0  0  0  0  0  0  0  0  0
    2.4922   -0.1156   -0.0206 C   0  0  0  0  0  0  0  0  0  0  0  0
    3.2028   -1.2246   -0.2843 C   0  0  0  0  0  0  0  0  0  0  0  0
    4.6944   -1.1808   -0.3658 C   0  0  0  0  0  0  0  0  0  0  0  0
    5.3061   -0.1485   -0.0996 O   0  0  0  0  0  0  0  0  0  0  0  0
    5.4073   -2.4493   -0.7835 C   0  0  0  0  0  0  0  0  0  0  0  0
    5.0159   -3.1253   -1.8943 C   0  0  0  0  0  0  0  0  0  0  0  0
    5.6500   -4.4369   -2.3145 C   0  0  0  0  0  0  0  0  0  0  0  0
    6.5456   -5.0740   -1.2632 C   0  0  0  0  0  0  0  0  0  0  0  0
    7.4395   -4.0151   -0.6431 C   0  0  0  0  0  0  0  0  0  0  0  0
    6.6217   -2.8935    0.0650 C   0  0  0  0  0  0  0  0  0  0  0  0
    7.6283   -1.7532    0.3322 C   0  0  0  0  0  0  0  0  0  0  0  0
    6.1251   -3.4302    1.4221 C   0  0  0  0  0  0  0  0  0  0  0  0
    3.9729   -2.6699   -2.8847 C   0  0  0  0  0  0  0  0  0  0  0  0
    0.6348    0.9000    0.2529 H   0  0  0  0  0  0  0  0  0  0  0  0
    0.5891   -0.8216    0.6621 H   0  0  0  0  0  0  0  0  0  0  0  0
    0.6202   -0.2998   -1.0449 H   0  0  0  0  0  0  0  0  0  0  0  0
    3.0027    0.8219    0.1965 H   0  0  0  0  0  0  0  0  0  0  0  0
    2.7039   -2.1574   -0.5159 H   0  0  0  0  0  0  0  0  0  0  0  0
    6.2365   -4.2576   -3.2246 H   0  0  0  0  0  0  0  0  0  0  0  0
    4.8661   -5.1586   -2.5745 H   0  0  0  0  0  0  0  0  0  0  0  0
    7.1550   -5.8593   -1.7261 H   0  0  0  0  0  0  0  0  0  0  0  0
    5.9379   -5.5652   -0.4950 H   0  0  0  0  0  0  0  0  0  0  0  0
    8.0645   -3.5827   -1.4376 H   0  0  0  0  0  0  0  0  0  0  0  0
    8.1322   -4.4923    0.0623 H   0  0  0  0  0  0  0  0  0  0  0  0
    7.9978   -1.3244   -0.6066 H   0  0  0  0  0  0  0  0  0  0  0  0
    8.4949   -2.1173    0.8967 H   0  0  0  0  0  0  0  0  0  0  0  0
    7.1988   -0.9478    0.9330 H   0  0  0  0  0  0  0  0  0  0  0  0
    5.4335   -4.2707    1.3002 H   0  0  0  0  0  0  0  0  0  0  0  0
    5.6058   -2.6547    1.9945 H   0  0  0  0  0  0  0  0  0  0  0  0
    6.9644   -3.7832    2.0341 H   0  0  0  0  0  0  0  0  0  0  0  0
    3.5344   -1.6971   -2.6652 H   0  0  0  0  0  0  0  0  0  0  0  0
    3.1608   -3.4027   -2.9333 H   0  0  0  0  0  0  0  0  0  0  0  0
    4.4233   -2.5710   -3.8766 H   0  0  0  0  0  0  0  0  0  0  0  0
  1  2  1  0  0  0  0
  1 15  1  0  0  0  0
  1 16  1  0  0  0  0
  1 17  1  0  0  0  0
  2  3  2  0  0  0  0
  2 18  1  0  0  0  0
  3  4  1  0  0  0  0
  3 19  1  0  0  0  0
  4  5  2  0  0  0  0
  4  6  1  0  0  0  0
  6  7  2  0  0  0  0
  6 11  1  0  0  0  0
  7  8  1  0  0  0  0
  7 14  1  0  0  0  0
  8  9  1  0  0  0  0
  8 20  1  0  0  0  0
  8 21  1  0  0  0  0
  9 10  1  0  0  0  0
  9 22  1  0  0  0  0
  9 23  1  0  0  0  0
 10 11  1  0  0  0  0
 10 24  1  0  0  0  0
 10 25  1  0  0  0  0
 11 12  1  0  0  0  0
 11 13  1  0  0  0  0
 12 26  1  0  0  0  0
 12 27  1  0  0  0  0
 12 28  1  0  0  0  0
 13 29  1  0  0  0  0
 13 30  1  0  0  0  0
 13 31  1  0  0  0  0
 14 32  1  0  0  0  0
 14 33  1  0  0  0  0
 14 34  1  0  0  0  0
M  END
$$$$
