
 OpenBabel06272214203D

 34 34  0  0  0  0  0  0  0  0999 V2000
    2.8385   -0.9459   -0.1154 C   0  0  0  0  0  0  0  0  0  0  0  0
    1.4284   -0.4105   -0.0104 C   0  0  0  0  0  0  0  0  0  0  0  0
    0.2568   -1.0884    0.1579 C   0  0  0  0  0  0  0  0  0  0  0  0
   -1.1132   -0.3263    0.0139 C   0  0  0  0  0  0  0  0  0  0  0  0
   -0.9305    1.1216   -0.5401 C   0  0  0  0  0  0  0  0  0  0  0  0
    0.2161    1.8446    0.1338 C   0  0  0  0  0  0  0  0  0  0  0  0
    1.4989    1.0992   -0.1610 C   0  0  0  0  0  0  0  0  0  0  0  0
   -2.0795   -1.0159   -0.9828 C   0  0  0  0  0  0  0  0  0  0  0  0
   -1.8186   -0.2331    1.3834 C   0  0  0  0  0  0  0  0  0  0  0  0
    0.1611   -2.5519    0.4026 C   0  0  0  0  0  0  0  0  0  0  0  0
    1.1598   -3.3795    0.7458 C   0  0  0  0  0  0  0  0  0  0  0  0
    1.1176   -4.8637    0.8534 C   0  0  0  0  0  0  0  0  0  0  0  0
    0.0682   -5.4850    0.8657 O   0  0  0  0  0  0  0  0  0  0  0  0
    2.4752   -5.5414    0.9486 C   0  0  0  0  0  0  0  0  0  0  0  0
    2.9489   -2.0107   -0.2770 H   0  0  0  0  0  0  0  0  0  0  0  0
    3.4132   -0.6554    0.7713 H   0  0  0  0  0  0  0  0  0  0  0  0
    3.3186   -0.5332   -1.0068 H   0  0  0  0  0  0  0  0  0  0  0  0
   -1.8498    1.7089   -0.4198 H   0  0  0  0  0  0  0  0  0  0  0  0
   -0.7304    1.0894   -1.6211 H   0  0  0  0  0  0  0  0  0  0  0  0
    0.0562    1.9201    1.2148 H   0  0  0  0  0  0  0  0  0  0  0  0
    0.2994    2.8705   -0.2435 H   0  0  0  0  0  0  0  0  0  0  0  0
    2.2813    1.4964    0.4982 H   0  0  0  0  0  0  0  0  0  0  0  0
    1.8092    1.3144   -1.1918 H   0  0  0  0  0  0  0  0  0  0  0  0
   -1.6308   -1.0940   -1.9797 H   0  0  0  0  0  0  0  0  0  0  0  0
   -3.0118   -0.4453   -1.0841 H   0  0  0  0  0  0  0  0  0  0  0  0
   -2.3704   -2.0201   -0.6644 H   0  0  0  0  0  0  0  0  0  0  0  0
   -1.1986    0.2784    2.1265 H   0  0  0  0  0  0  0  0  0  0  0  0
   -2.0631   -1.2238    1.7787 H   0  0  0  0  0  0  0  0  0  0  0  0
   -2.7604    0.3254    1.3029 H   0  0  0  0  0  0  0  0  0  0  0  0
   -0.8280   -3.0008    0.3257 H   0  0  0  0  0  0  0  0  0  0  0  0
    2.1472   -3.0253    0.9606 H   0  0  0  0  0  0  0  0  0  0  0  0
    3.3014   -4.8312    0.8204 H   0  0  0  0  0  0  0  0  0  0  0  0
    2.5735   -6.2924    0.1610 H   0  0  0  0  0  0  0  0  0  0  0  0
    2.5793   -5.9969    1.9353 H   0  0  0  0  0  0  0  0  0  0  0  0
  1  2  1  0  0  0  0
  1 15  1  0  0  0  0
  1 16  1  0  0  0  0
  1 17  1  0  0  0  0
  2  3  2  0  0  0  0
  2  7  1  0  0  0  0
  3  4  1  0  0  0  0
  3 10  1  0  0  0  0
  4  5  1  0  0  0  0
  4  8  1  0  0  0  0
  4  9  1  0  0  0  0
  5  6  1  0  0  0  0
  5 18  1  0  0  0  0
  5 19  1  0  0  0  0
  6  7  1  0  0  0  0
  6 20  1  0  0  0  0
  6 21  1  0  0  0  0
  7 22  1  0  0  0  0
  7 23  1  0  0  0  0
  8 24  1  0  0  0  0
  8 25  1  0  0  0  0
  8 26  1  0  0  0  0
  9 27  1  0  0  0  0
  9 28  1  0  0  0  0
  9 29  1  0  0  0  0
 10 11  2  0  0  0  0
 10 30  1  0  0  0  0
 11 12  1  0  0  0  0
 11 31  1  0  0  0  0
 12 13  2  0  0  0  0
 12 14  1  0  0  0  0
 14 32  1  0  0  0  0
 14 33  1  0  0  0  0
 14 34  1  0  0  0  0
M  END
$$$$
