
 OpenBabel06272214203D

 14 13  0  0  0  0  0  0  0  0999 V2000
    0.9783    0.0924   -0.0528 C   0  0  0  0  0  0  0  0  0  0  0  0
    2.4960    0.0936   -0.0654 C   0  0  0  0  0  0  0  0  0  0  0  0
    3.0717    0.2277   -1.4784 C   0  0  0  0  0  0  0  0  0  0  0  0
    4.5845    0.2230   -1.4286 C   0  0  0  0  0  0  0  0  0  0  0  0
    5.2453    0.1257   -0.4033 O   0  0  0  0  0  0  0  0  0  0  0  0
    5.1731    0.3378   -2.6392 O   0  0  0  0  0  0  0  0  0  0  0  0
    0.6109   -0.0050    0.9744 H   0  0  0  0  0  0  0  0  0  0  0  0
    0.5824   -0.7449   -0.6351 H   0  0  0  0  0  0  0  0  0  0  0  0
    0.5824    1.0243   -0.4672 H   0  0  0  0  0  0  0  0  0  0  0  0
    2.8582   -0.8337    0.3956 H   0  0  0  0  0  0  0  0  0  0  0  0
    2.8582    0.9177    0.5618 H   0  0  0  0  0  0  0  0  0  0  0  0
    2.7322    1.1670   -1.9291 H   0  0  0  0  0  0  0  0  0  0  0  0
    2.7322   -0.6100   -2.0977 H   0  0  0  0  0  0  0  0  0  0  0  0
    4.5652    0.4098   -3.3975 H   0  0  0  0  0  0  0  0  0  0  0  0
  1  2  1  0  0  0  0
  1  7  1  0  0  0  0
  1  8  1  0  0  0  0
  1  9  1  0  0  0  0
  2  3  1  0  0  0  0
  2 10  1  0  0  0  0
  2 11  1  0  0  0  0
  3  4  1  0  0  0  0
  3 12  1  0  0  0  0
  3 13  1  0  0  0  0
  4  5  2  0  0  0  0
  4  6  1  0  0  0  0
  6 14  1  0  0  0  0
M  END
$$$$
