
 OpenBabel06272214203D

 16 16  0  0  0  0  0  0  0  0999 V2000
   -0.7690   -0.9849   -0.2110 C   0  0  0  0  0  0  0  0  0  0  0  0
   -1.1601    0.4088    0.2489 C   0  0  0  0  0  0  0  0  0  0  0  0
    0.0107    1.2662   -0.2081 C   0  0  0  0  0  0  0  0  0  0  0  0
    1.2388    0.3860    0.0376 C   0  0  0  0  0  0  0  0  0  0  0  0
    0.7333   -1.0632    0.0448 C   0  0  0  0  0  0  0  0  0  0  0  0
    2.5339    0.6718   -1.2057 S   0  0  0  0  0  0  0  0  0  0  0  0
   -0.9710   -1.0990   -1.2820 H   0  0  0  0  0  0  0  0  0  0  0  0
   -1.3193   -1.7666    0.3219 H   0  0  0  0  0  0  0  0  0  0  0  0
   -1.2545    0.4398    1.3398 H   0  0  0  0  0  0  0  0  0  0  0  0
   -2.1083    0.7374   -0.1878 H   0  0  0  0  0  0  0  0  0  0  0  0
    0.0628    2.2054    0.3532 H   0  0  0  0  0  0  0  0  0  0  0  0
   -0.1171    1.5158   -1.2680 H   0  0  0  0  0  0  0  0  0  0  0  0
    1.6725    0.6202    1.0163 H   0  0  0  0  0  0  0  0  0  0  0  0
    0.9099   -1.4988    1.0359 H   0  0  0  0  0  0  0  0  0  0  0  0
    1.2207   -1.7203   -0.6836 H   0  0  0  0  0  0  0  0  0  0  0  0
    1.8170    0.2940   -2.2746 H   0  0  0  0  0  0  0  0  0  0  0  0
  1  2  1  0  0  0  0
  1  5  1  0  0  0  0
  1  7  1  0  0  0  0
  1  8  1  0  0  0  0
  2  3  1  0  0  0  0
  2  9  1  0  0  0  0
  2 10  1  0  0  0  0
  3  4  1  0  0  0  0
  3 11  1  0  0  0  0
  3 12  1  0  0  0  0
  4  5  1  0  0  0  0
  4  6  1  0  0  0  0
  4 13  1  0  0  0  0
  5 14  1  0  0  0  0
  5 15  1  0  0  0  0
  6 16  1  0  0  0  0
M  END
$$$$
