
 OpenBabel06272214203D

 12 11  0  0  0  0  0  0  0  0999 V2000
    0.9936   -0.0520   -0.0778 C   0  0  0  0  0  0  0  0  0  0  0  0
    2.4945   -0.0822   -0.0445 C   0  0  0  0  0  0  0  0  0  0  0  0
    3.1355   -0.7823    0.7298 O   0  0  0  0  0  0  0  0  0  0  0  0
    3.2197    0.8173   -1.0391 C   0  0  0  0  0  0  0  0  0  0  0  0
    2.5640    1.5124   -1.8077 O   0  0  0  0  0  0  0  0  0  0  0  0
    4.7226    0.8057   -1.0263 C   0  0  0  0  0  0  0  0  0  0  0  0
    0.6037   -0.7379    0.6806 H   0  0  0  0  0  0  0  0  0  0  0  0
    0.6322   -0.3781   -1.0562 H   0  0  0  0  0  0  0  0  0  0  0  0
    0.6322    0.9542    0.1485 H   0  0  0  0  0  0  0  0  0  0  0  0
    5.1238    0.1246   -0.2731 H   0  0  0  0  0  0  0  0  0  0  0  0
    5.0872    1.8126   -0.8056 H   0  0  0  0  0  0  0  0  0  0  0  0
    5.0872    0.4852   -2.0059 H   0  0  0  0  0  0  0  0  0  0  0  0
  1  2  1  0  0  0  0
  1  7  1  0  0  0  0
  1  8  1  0  0  0  0
  1  9  1  0  0  0  0
  2  3  2  0  0  0  0
  2  4  1  0  0  0  0
  4  5  2  0  0  0  0
  4  6  1  0  0  0  0
  6 10  1  0  0  0  0
  6 11  1  0  0  0  0
  6 12  1  0  0  0  0
M  END
$$$$
