
 OpenBabel06272214203D

  9  8  0  0  0  0  0  0  0  0999 V2000
    1.1408    0.0431    0.0433 C   0  0  0  0  0  0  0  0  0  0  0  0
    2.9436   -0.0713    0.1540 S   0  0  0  0  0  0  0  0  0  0  0  0
    3.3944    1.1879   -1.0651 C   0  0  0  0  0  0  0  0  0  0  0  0
    0.6988   -0.6751    0.7386 H   0  0  0  0  0  0  0  0  0  0  0  0
    0.7985   -0.2001   -0.9665 H   0  0  0  0  0  0  0  0  0  0  0  0
    0.7985    1.0445    0.3190 H   0  0  0  0  0  0  0  0  0  0  0  0
    4.4841    1.2480   -1.1232 H   0  0  0  0  0  0  0  0  0  0  0  0
    3.0109    2.1684   -0.7692 H   0  0  0  0  0  0  0  0  0  0  0  0
    3.0109    0.9239   -2.0546 H   0  0  0  0  0  0  0  0  0  0  0  0
  1  2  1  0  0  0  0
  1  4  1  0  0  0  0
  1  5  1  0  0  0  0
  1  6  1  0  0  0  0
  2  3  1  0  0  0  0
  3  7  1  0  0  0  0
  3  8  1  0  0  0  0
  3  9  1  0  0  0  0
M  END
$$$$
