
 OpenBabel06272214203D

 13 12  0  0  0  0  0  0  0  0999 V2000
    0.9285    0.0487   -0.0023 C   0  0  0  0  0  0  0  0  0  0  0  0
    2.4219    0.0565   -0.0321 C   0  0  0  0  0  0  0  0  0  0  0  0
    3.1296    0.5529   -1.0624 C   0  0  0  0  0  0  0  0  0  0  0  0
    4.6277    0.5658   -1.0850 C   0  0  0  0  0  0  0  0  0  0  0  0
    5.2530    1.3732   -2.5835 S   0  0  0  0  0  0  0  0  0  0  0  0
    0.5737   -0.4035    0.9295 H   0  0  0  0  0  0  0  0  0  0  0  0
    0.5268   -0.5390   -0.8334 H   0  0  0  0  0  0  0  0  0  0  0  0
    0.5325    1.0676   -0.0519 H   0  0  0  0  0  0  0  0  0  0  0  0
    2.9339   -0.3614    0.8319 H   0  0  0  0  0  0  0  0  0  0  0  0
    2.5885    0.9715   -1.9082 H   0  0  0  0  0  0  0  0  0  0  0  0
    5.0186   -0.4560   -1.0498 H   0  0  0  0  0  0  0  0  0  0  0  0
    5.0116    1.1216   -0.2241 H   0  0  0  0  0  0  0  0  0  0  0  0
    4.7282    0.5126   -3.4677 H   0  0  0  0  0  0  0  0  0  0  0  0
  1  2  1  0  0  0  0
  1  6  1  0  0  0  0
  1  7  1  0  0  0  0
  1  8  1  0  0  0  0
  2  3  2  0  0  0  0
  2  9  1  0  0  0  0
  3  4  1  0  0  0  0
  3 10  1  0  0  0  0
  4  5  1  0  0  0  0
  4 11  1  0  0  0  0
  4 12  1  0  0  0  0
  5 13  1  0  0  0  0
M  END
$$$$
