
 OpenBabel06272214203D

 29 28  0  0  0  0  0  0  0  0999 V2000
    0.9948   -0.0383    0.0092 C   0  0  0  0  0  0  0  0  0  0  0  0
    2.5008   -0.0698   -0.0526 C   0  0  0  0  0  0  0  0  0  0  0  0
    3.1882   -0.5860   -1.0936 C   0  0  0  0  0  0  0  0  0  0  0  0
    2.4927   -1.1712   -2.2765 C   0  0  0  0  0  0  0  0  0  0  0  0
    3.3974   -1.7185   -3.3782 C   0  0  0  0  0  0  0  0  0  0  0  0
    2.6189   -2.3035   -4.5461 C   0  0  0  0  0  0  0  0  0  0  0  0
    1.2697   -2.3314   -4.6117 C   0  0  0  0  0  0  0  0  0  0  0  0
    0.4832   -2.8918   -5.7466 C   0  0  0  0  0  0  0  0  0  0  0  0
   -0.8996   -2.7433   -5.4634 O   0  0  0  0  0  0  0  0  0  0  0  0
    3.4475   -2.8586   -5.6711 C   0  0  0  0  0  0  0  0  0  0  0  0
    3.2376    0.5102    1.1157 C   0  0  0  0  0  0  0  0  0  0  0  0
    0.5122   -0.4747   -0.8713 H   0  0  0  0  0  0  0  0  0  0  0  0
    0.6382    0.9935    0.0811 H   0  0  0  0  0  0  0  0  0  0  0  0
    0.6375   -0.6052    0.8739 H   0  0  0  0  0  0  0  0  0  0  0  0
    4.2744   -0.5818   -1.0872 H   0  0  0  0  0  0  0  0  0  0  0  0
    1.8575   -0.3872   -2.7104 H   0  0  0  0  0  0  0  0  0  0  0  0
    1.8560   -1.9905   -1.9160 H   0  0  0  0  0  0  0  0  0  0  0  0
    4.0492   -2.4948   -2.9572 H   0  0  0  0  0  0  0  0  0  0  0  0
    4.0468   -0.9133   -3.7454 H   0  0  0  0  0  0  0  0  0  0  0  0
    0.6672   -1.9124   -3.8106 H   0  0  0  0  0  0  0  0  0  0  0  0
    0.6962   -3.9558   -5.8803 H   0  0  0  0  0  0  0  0  0  0  0  0
    0.7012   -2.3462   -6.6680 H   0  0  0  0  0  0  0  0  0  0  0  0
   -1.0800   -3.2574   -4.6586 H   0  0  0  0  0  0  0  0  0  0  0  0
    4.5191   -2.7604   -5.4761 H   0  0  0  0  0  0  0  0  0  0  0  0
    3.2295   -2.3232   -6.6013 H   0  0  0  0  0  0  0  0  0  0  0  0
    3.2307   -3.9225   -5.8123 H   0  0  0  0  0  0  0  0  0  0  0  0
    2.5453    0.8869    1.8750 H   0  0  0  0  0  0  0  0  0  0  0  0
    3.8681    1.3454    0.7936 H   0  0  0  0  0  0  0  0  0  0  0  0
    3.8684   -0.2511    1.5859 H   0  0  0  0  0  0  0  0  0  0  0  0
  1  2  1  0  0  0  0
  1 12  1  0  0  0  0
  1 13  1  0  0  0  0
  1 14  1  0  0  0  0
  2  3  2  0  0  0  0
  2 11  1  0  0  0  0
  3  4  1  0  0  0  0
  3 15  1  0  0  0  0
  4  5  1  0  0  0  0
  4 16  1  0  0  0  0
  4 17  1  0  0  0  0
  5  6  1  0  0  0  0
  5 18  1  0  0  0  0
  5 19  1  0  0  0  0
  6  7  2  0  0  0  0
  6 10  1  0  0  0  0
  7  8  1  0  0  0  0
  7 20  1  0  0  0  0
  8  9  1  0  0  0  0
  8 21  1  0  0  0  0
  8 22  1  0  0  0  0
  9 23  1  0  0  0  0
 10 24  1  0  0  0  0
 10 25  1  0  0  0  0
 10 26  1  0  0  0  0
 11 27  1  0  0  0  0
 11 28  1  0  0  0  0
 11 29  1  0  0  0  0
M  END
$$$$
