
 OpenBabel06272214203D

 29 28  0  0  0  0  0  0  0  0999 V2000
    0.9729   -0.1380   -0.0799 C   0  0  0  0  0  0  0  0  0  0  0  0
    2.4841   -0.0856   -0.0703 C   0  0  0  0  0  0  0  0  0  0  0  0
    3.2022    0.8022    0.6456 C   0  0  0  0  0  0  0  0  0  0  0  0
    2.5218    1.7791    1.5305 C   0  0  0  0  0  0  0  0  0  0  0  0
    3.3983    2.7204    2.3413 C   0  0  0  0  0  0  0  0  0  0  0  0
    2.5537    3.7072    3.1877 C   0  0  0  0  0  0  0  0  0  0  0  0
    1.7176    4.6482    2.3092 C   0  0  0  0  0  0  0  0  0  0  0  0
    1.6879    3.0005    4.2120 C   0  0  0  0  0  0  0  0  0  0  0  0
    0.6001    2.2524    3.9393 C   0  0  0  0  0  0  0  0  0  0  0  0
    3.4709    4.5210    3.9278 O   0  0  0  0  0  0  0  0  0  0  0  0
    3.2013   -1.1039   -0.8966 C   0  0  0  0  0  0  0  0  0  0  0  0
    0.4994    0.6128    0.5620 H   0  0  0  0  0  0  0  0  0  0  0  0
    0.6187   -1.1112    0.2734 H   0  0  0  0  0  0  0  0  0  0  0  0
    0.5939    0.0367   -1.0911 H   0  0  0  0  0  0  0  0  0  0  0  0
    4.2881    0.7797    0.6391 H   0  0  0  0  0  0  0  0  0  0  0  0
    1.9607    1.1537    2.2263 H   0  0  0  0  0  0  0  0  0  0  0  0
    1.8310    2.3665    0.9171 H   0  0  0  0  0  0  0  0  0  0  0  0
    4.0661    3.2798    1.6727 H   0  0  0  0  0  0  0  0  0  0  0  0
    4.0620    2.1394    2.9964 H   0  0  0  0  0  0  0  0  0  0  0  0
    0.9459    4.1208    1.7402 H   0  0  0  0  0  0  0  0  0  0  0  0
    2.3547    5.1842    1.5969 H   0  0  0  0  0  0  0  0  0  0  0  0
    1.2150    5.4077    2.9181 H   0  0  0  0  0  0  0  0  0  0  0  0
    1.9917    3.0963    5.2512 H   0  0  0  0  0  0  0  0  0  0  0  0
    0.2413    2.1131    2.9244 H   0  0  0  0  0  0  0  0  0  0  0  0
    0.0713    1.7099    4.7120 H   0  0  0  0  0  0  0  0  0  0  0  0
    4.0379    4.9804    3.2847 H   0  0  0  0  0  0  0  0  0  0  0  0
    2.4994   -1.7476   -1.4332 H   0  0  0  0  0  0  0  0  0  0  0  0
    3.8222   -1.7387   -0.2557 H   0  0  0  0  0  0  0  0  0  0  0  0
    3.8396   -0.6057   -1.6326 H   0  0  0  0  0  0  0  0  0  0  0  0
  1  2  1  0  0  0  0
  1 12  1  0  0  0  0
  1 13  1  0  0  0  0
  1 14  1  0  0  0  0
  2  3  2  0  0  0  0
  2 11  1  0  0  0  0
  3  4  1  0  0  0  0
  3 15  1  0  0  0  0
  4  5  1  0  0  0  0
  4 16  1  0  0  0  0
  4 17  1  0  0  0  0
  5  6  1  0  0  0  0
  5 18  1  0  0  0  0
  5 19  1  0  0  0  0
  6  7  1  0  0  0  0
  6  8  1  0  0  0  0
  6 10  1  0  0  0  0
  7 20  1  0  0  0  0
  7 21  1  0  0  0  0
  7 22  1  0  0  0  0
  8  9  2  0  0  0  0
  8 23  1  0  0  0  0
  9 24  1  0  0  0  0
  9 25  1  0  0  0  0
 10 26  1  0  0  0  0
 11 27  1  0  0  0  0
 11 28  1  0  0  0  0
 11 29  1  0  0  0  0
M  END
$$$$
