
 OpenBabel06272214203D

 16 16  0  0  0  0  0  0  0  0999 V2000
    2.9818    0.0299    0.0645 C   0  0  0  0  0  0  0  0  0  0  0  0
    1.4833    0.0209   -0.0045 C   0  0  0  0  0  0  0  0  0  0  0  0
    0.7568    1.2192   -0.0267 C   0  0  0  0  0  0  0  0  0  0  0  0
   -0.6399    1.2005   -0.0349 C   0  0  0  0  0  0  0  0  0  0  0  0
   -1.3087   -0.0184   -0.0252 C   0  0  0  0  0  0  0  0  0  0  0  0
   -0.6043   -1.2164   -0.0354 C   0  0  0  0  0  0  0  0  0  0  0  0
    0.7913   -1.1970   -0.0245 C   0  0  0  0  0  0  0  0  0  0  0  0
   -2.6705   -0.0813    0.0028 O   0  0  0  0  0  0  0  0  0  0  0  0
    3.3769    1.0510    0.0724 H   0  0  0  0  0  0  0  0  0  0  0  0
    3.4073   -0.4907   -0.7989 H   0  0  0  0  0  0  0  0  0  0  0  0
    3.3151   -0.4631    0.9838 H   0  0  0  0  0  0  0  0  0  0  0  0
    1.2749    2.1752   -0.0285 H   0  0  0  0  0  0  0  0  0  0  0  0
   -1.1823    2.1407   -0.0436 H   0  0  0  0  0  0  0  0  0  0  0  0
   -1.1389   -2.1614   -0.0410 H   0  0  0  0  0  0  0  0  0  0  0  0
    1.3358   -2.1387   -0.0209 H   0  0  0  0  0  0  0  0  0  0  0  0
   -3.0173    0.8229    0.0767 H   0  0  0  0  0  0  0  0  0  0  0  0
  1  2  1  0  0  0  0
  1  9  1  0  0  0  0
  1 10  1  0  0  0  0
  1 11  1  0  0  0  0
  2  3  2  0  0  0  0
  2  7  1  0  0  0  0
  3  4  1  0  0  0  0
  3 12  1  0  0  0  0
  4  5  2  0  0  0  0
  4 13  1  0  0  0  0
  5  6  1  0  0  0  0
  5  8  1  0  0  0  0
  6  7  2  0  0  0  0
  6 14  1  0  0  0  0
  7 15  1  0  0  0  0
  8 16  1  0  0  0  0
M  END
$$$$
