
 OpenBabel06272214203D

 15 14  0  0  0  0  0  0  0  0999 V2000
    0.9213    0.1030    0.0277 C   0  0  0  0  0  0  0  0  0  0  0  0
    2.4526    0.0766    0.0218 C   0  0  0  0  0  0  0  0  0  0  0  0
    2.9722   -0.7038    1.2328 C   0  0  0  0  0  0  0  0  0  0  0  0
    2.9655   -0.5560   -1.2746 C   0  0  0  0  0  0  0  0  0  0  0  0
    3.0816    1.7991    0.1045 S   0  0  0  0  0  0  0  0  0  0  0  0
    0.5188   -0.9150   -0.0361 H   0  0  0  0  0  0  0  0  0  0  0  0
    0.5204    0.6632   -0.8255 H   0  0  0  0  0  0  0  0  0  0  0  0
    0.5247    0.5507    0.9459 H   0  0  0  0  0  0  0  0  0  0  0  0
    2.6224   -1.7425    1.2000 H   0  0  0  0  0  0  0  0  0  0  0  0
    2.6199   -0.2735    2.1770 H   0  0  0  0  0  0  0  0  0  0  0  0
    4.0682   -0.7324    1.2591 H   0  0  0  0  0  0  0  0  0  0  0  0
    2.6126   -1.5899   -1.3663 H   0  0  0  0  0  0  0  0  0  0  0  0
    4.0611   -0.5835   -1.3077 H   0  0  0  0  0  0  0  0  0  0  0  0
    2.6118   -0.0134   -2.1593 H   0  0  0  0  0  0  0  0  0  0  0  0
    2.5207    2.1258    1.2779 H   0  0  0  0  0  0  0  0  0  0  0  0
  1  2  1  0  0  0  0
  1  6  1  0  0  0  0
  1  7  1  0  0  0  0
  1  8  1  0  0  0  0
  2  3  1  0  0  0  0
  2  4  1  0  0  0  0
  2  5  1  0  0  0  0
  3  9  1  0  0  0  0
  3 10  1  0  0  0  0
  3 11  1  0  0  0  0
  4 12  1  0  0  0  0
  4 13  1  0  0  0  0
  4 14  1  0  0  0  0
  5 15  1  0  0  0  0
M  END
$$$$
