
 OpenBabel06272214203D

 18 18  0  0  0  0  0  0  0  0999 V2000
    1.3810   -0.2021    0.0127 C   0  0  0  0  0  0  0  0  0  0  0  0
    0.8524    1.0866    0.0026 C   0  0  0  0  0  0  0  0  0  0  0  0
   -0.5350    1.2819    0.0173 C   0  0  0  0  0  0  0  0  0  0  0  0
   -1.4126    0.1886   -0.0344 C   0  0  0  0  0  0  0  0  0  0  0  0
   -0.8561   -1.1001   -0.0080 C   0  0  0  0  0  0  0  0  0  0  0  0
    0.5252   -1.2958    0.0190 C   0  0  0  0  0  0  0  0  0  0  0  0
   -2.8676    0.4205   -0.1672 C   0  0  0  0  0  0  0  0  0  0  0  0
   -3.7639   -0.5688   -0.3089 C   0  0  0  0  0  0  0  0  0  0  0  0
   -5.2041   -0.3246   -0.4942 C   0  0  0  0  0  0  0  0  0  0  0  0
   -5.9864   -1.2650   -0.6127 O   0  0  0  0  0  0  0  0  0  0  0  0
    2.4564   -0.3571    0.0217 H   0  0  0  0  0  0  0  0  0  0  0  0
    1.5232    1.9417   -0.0281 H   0  0  0  0  0  0  0  0  0  0  0  0
   -0.9129    2.3012    0.0582 H   0  0  0  0  0  0  0  0  0  0  0  0
   -1.4789   -1.9887   -0.0152 H   0  0  0  0  0  0  0  0  0  0  0  0
    0.9232   -2.3070    0.0280 H   0  0  0  0  0  0  0  0  0  0  0  0
   -3.1881    1.4603   -0.1919 H   0  0  0  0  0  0  0  0  0  0  0  0
   -3.5052   -1.6190   -0.3151 H   0  0  0  0  0  0  0  0  0  0  0  0
   -5.5342    0.7235   -0.5249 H   0  0  0  0  0  0  0  0  0  0  0  0
  1  2  2  0  0  0  0
  1  6  1  0  0  0  0
  1 11  1  0  0  0  0
  2  3  1  0  0  0  0
  2 12  1  0  0  0  0
  3  4  2  0  0  0  0
  3 13  1  0  0  0  0
  4  5  1  0  0  0  0
  4  7  1  0  0  0  0
  5  6  2  0  0  0  0
  5 14  1  0  0  0  0
  6 15  1  0  0  0  0
  7  8  2  0  0  0  0
  7 16  1  0  0  0  0
  8  9  1  0  0  0  0
  8 17  1  0  0  0  0
  9 10  2  0  0  0  0
  9 18  1  0  0  0  0
M  END
$$$$
