
 OpenBabel07222214433D

 17 17  0  0  0  0  0  0  0  0999 V2000
    1.0677    0.0155    0.0420 C   0  0  0  0  0  0  0  0  0  0  0  0
    2.5865   -0.0912    0.0608 C   0  0  0  0  0  0  0  0  0  0  0  0
    3.1093   -1.3123   -0.6055 C   0  0  0  0  0  0  0  0  0  0  0  0
    4.1029   -0.9854   -1.4306 C   0  0  0  0  0  0  0  0  0  0  0  0
    4.2692    0.4803   -1.3577 C   0  0  0  0  0  0  0  0  0  0  0  0
    5.1786    1.1335   -1.8416 O   0  0  0  0  0  0  0  0  0  0  0  0
    3.2140    0.9841   -0.6468 O   0  0  0  0  0  0  0  0  0  0  0  0
    4.8491   -1.8170   -2.2148 O   0  0  0  0  0  0  0  0  0  0  0  0
    2.5700   -2.6726   -0.3620 C   0  0  0  0  0  0  0  0  0  0  0  0
    0.6239   -0.7815    0.6501 H   0  0  0  0  0  0  0  0  0  0  0  0
    0.6629   -0.0653   -0.9721 H   0  0  0  0  0  0  0  0  0  0  0  0
    0.7291    0.9697    0.4570 H   0  0  0  0  0  0  0  0  0  0  0  0
    2.9318   -0.0275    1.0987 H   0  0  0  0  0  0  0  0  0  0  0  0
    4.5216   -2.7242   -2.1016 H   0  0  0  0  0  0  0  0  0  0  0  0
    1.7581   -2.6695    0.3693 H   0  0  0  0  0  0  0  0  0  0  0  0
    3.3541   -3.3317    0.0201 H   0  0  0  0  0  0  0  0  0  0  0  0
    2.1744   -3.0884   -1.2944 H   0  0  0  0  0  0  0  0  0  0  0  0
  1  2  1  0  0  0  0
  1 10  1  0  0  0  0
  1 11  1  0  0  0  0
  1 12  1  0  0  0  0
  2  3  1  0  0  0  0
  2  7  1  0  0  0  0
  2 13  1  0  0  0  0
  3  4  2  0  0  0  0
  3  9  1  0  0  0  0
  4  5  1  0  0  0  0
  4  8  1  0  0  0  0
  5  6  2  0  0  0  0
  5  7  1  0  0  0  0
  8 14  1  0  0  0  0
  9 15  1  0  0  0  0
  9 16  1  0  0  0  0
  9 17  1  0  0  0  0
M  END
$$$$
