
 OpenBabel07222214433D

 18 18  0  0  0  0  0  0  0  0999 V2000
    1.0694   -0.0082    0.0140 C   0  0  0  0  0  0  0  0  0  0  0  0
    2.5868   -0.0345   -0.0257 C   0  0  0  0  0  0  0  0  0  0  0  0
    3.2382   -1.4183    0.0324 C   0  0  0  0  0  0  0  0  0  0  0  0
    2.5865   -2.5987   -0.6628 C   0  0  0  0  0  0  0  0  0  0  0  0
    3.1502   -3.7742    0.1123 C   0  0  0  0  0  0  0  0  0  0  0  0
    3.4258   -3.1824    1.4626 C   0  0  0  0  0  0  0  0  0  0  0  0
    3.7045   -3.8095    2.4680 O   0  0  0  0  0  0  0  0  0  0  0  0
    3.3595   -1.8221    1.4003 O   0  0  0  0  0  0  0  0  0  0  0  0
    0.7144    1.0285   -0.0117 H   0  0  0  0  0  0  0  0  0  0  0  0
    0.6846   -0.4759    0.9245 H   0  0  0  0  0  0  0  0  0  0  0  0
    0.6477   -0.5169   -0.8570 H   0  0  0  0  0  0  0  0  0  0  0  0
    2.9536    0.5605    0.8226 H   0  0  0  0  0  0  0  0  0  0  0  0
    2.9144    0.4800   -0.9357 H   0  0  0  0  0  0  0  0  0  0  0  0
    4.2571   -1.3016   -0.3572 H   0  0  0  0  0  0  0  0  0  0  0  0
    2.8441   -2.6504   -1.7251 H   0  0  0  0  0  0  0  0  0  0  0  0
    1.4940   -2.6079   -0.5826 H   0  0  0  0  0  0  0  0  0  0  0  0
    4.0916   -4.1250   -0.3191 H   0  0  0  0  0  0  0  0  0  0  0  0
    2.4340   -4.5964    0.1906 H   0  0  0  0  0  0  0  0  0  0  0  0
  1  2  1  0  0  0  0
  1  9  1  0  0  0  0
  1 10  1  0  0  0  0
  1 11  1  0  0  0  0
  2  3  1  0  0  0  0
  2 12  1  0  0  0  0
  2 13  1  0  0  0  0
  3  4  1  0  0  0  0
  3  8  1  0  0  0  0
  3 14  1  0  0  0  0
  4  5  1  0  0  0  0
  4 15  1  0  0  0  0
  4 16  1  0  0  0  0
  5  6  1  0  0  0  0
  5 17  1  0  0  0  0
  5 18  1  0  0  0  0
  6  7  2  0  0  0  0
  6  8  1  0  0  0  0
M  END
$$$$
