
 OpenBabel07202215583D

 28 27  0  0  0  0  0  0  0  0999 V2000
    1.0607    0.0142    0.0455 C   0  0  0  0  0  0  0  0  0  0  0  0
    2.5771    0.0107    0.0527 C   0  0  0  0  0  0  0  0  0  0  0  0
    3.1016   -0.6072    1.3419 C   0  0  0  0  0  0  0  0  0  0  0  0
    4.6230   -0.6127    1.3533 C   0  0  0  0  0  0  0  0  0  0  0  0
    5.1391   -1.2315    2.6445 C   0  0  0  0  0  0  0  0  0  0  0  0
    6.6604   -1.2372    2.6562 C   0  0  0  0  0  0  0  0  0  0  0  0
    7.1842   -1.8552    3.9457 C   0  0  0  0  0  0  0  0  0  0  0  0
    8.7055   -1.8582    3.9520 C   0  0  0  0  0  0  0  0  0  0  0  0
    9.2374   -2.4659    5.2197 C   0  0  0  0  0  0  0  0  0  0  0  0
   10.4399   -2.5751    5.4477 O   0  0  0  0  0  0  0  0  0  0  0  0
    0.6867    0.4581   -0.8808 H   0  0  0  0  0  0  0  0  0  0  0  0
    0.6712    0.5938    0.8885 H   0  0  0  0  0  0  0  0  0  0  0  0
    0.6712   -1.0061    0.1217 H   0  0  0  0  0  0  0  0  0  0  0  0
    2.9477    1.0377   -0.0470 H   0  0  0  0  0  0  0  0  0  0  0  0
    2.9477   -0.5548   -0.8102 H   0  0  0  0  0  0  0  0  0  0  0  0
    2.7281   -1.6338    1.4418 H   0  0  0  0  0  0  0  0  0  0  0  0
    2.7281   -0.0420    2.2047 H   0  0  0  0  0  0  0  0  0  0  0  0
    4.9997    0.4130    1.2564 H   0  0  0  0  0  0  0  0  0  0  0  0
    4.9997   -1.1796    0.4931 H   0  0  0  0  0  0  0  0  0  0  0  0
    4.7622   -2.2571    2.7414 H   0  0  0  0  0  0  0  0  0  0  0  0
    4.7622   -0.6647    3.5047 H   0  0  0  0  0  0  0  0  0  0  0  0
    7.0341   -0.2106    2.5568 H   0  0  0  0  0  0  0  0  0  0  0  0
    7.0341   -1.8027    1.7937 H   0  0  0  0  0  0  0  0  0  0  0  0
    6.8057   -2.8802    4.0480 H   0  0  0  0  0  0  0  0  0  0  0  0
    6.8057   -1.2929    4.8087 H   0  0  0  0  0  0  0  0  0  0  0  0
    9.0835   -0.8333    3.8776 H   0  0  0  0  0  0  0  0  0  0  0  0
    9.0835   -2.4422    3.1064 H   0  0  0  0  0  0  0  0  0  0  0  0
    8.4927   -2.8174    5.9532 H   0  0  0  0  0  0  0  0  0  0  0  0
  1  2  1  0  0  0  0
  1 11  1  0  0  0  0
  1 12  1  0  0  0  0
  1 13  1  0  0  0  0
  2  3  1  0  0  0  0
  2 14  1  0  0  0  0
  2 15  1  0  0  0  0
  3  4  1  0  0  0  0
  3 16  1  0  0  0  0
  3 17  1  0  0  0  0
  4  5  1  0  0  0  0
  4 18  1  0  0  0  0
  4 19  1  0  0  0  0
  5  6  1  0  0  0  0
  5 20  1  0  0  0  0
  5 21  1  0  0  0  0
  6  7  1  0  0  0  0
  6 22  1  0  0  0  0
  6 23  1  0  0  0  0
  7  8  1  0  0  0  0
  7 24  1  0  0  0  0
  7 25  1  0  0  0  0
  8  9  1  0  0  0  0
  8 26  1  0  0  0  0
  8 27  1  0  0  0  0
  9 10  2  0  0  0  0
  9 28  1  0  0  0  0
M  END
$$$$
