
 OpenBabel07222214433D

 34 33  0  0  0  0  0  0  0  0999 V2000
    0.9067    0.0794    0.0315 C   0  0  0  0  0  0  0  0  0  0  0  0
    2.4226    0.0725    0.0321 C   0  0  0  0  0  0  0  0  0  0  0  0
    2.9455   -1.3504    0.1592 C   0  0  0  0  0  0  0  0  0  0  0  0
    4.4651   -1.3615    0.1602 C   0  0  0  0  0  0  0  0  0  0  0  0
    4.9705   -2.7881    0.2876 C   0  0  0  0  0  0  0  0  0  0  0  0
    6.4857   -2.8081    0.2894 C   0  0  0  0  0  0  0  0  0  0  0  0
    6.9815   -4.2408    0.4174 C   0  0  0  0  0  0  0  0  0  0  0  0
    8.4942   -4.2361    0.4169 C   0  0  0  0  0  0  0  0  0  0  0  0
    9.0773   -5.6297    0.5414 C   0  0  0  0  0  0  0  0  0  0  0  0
   10.5934   -5.6526    0.5435 C   0  0  0  0  0  0  0  0  0  0  0  0
   11.3872   -4.3722    0.4291 C   0  0  0  0  0  0  0  0  0  0  0  0
   11.1867   -6.7338    0.6400 O   0  0  0  0  0  0  0  0  0  0  0  0
    0.5327    1.1022   -0.0599 H   0  0  0  0  0  0  0  0  0  0  0  0
    0.5178   -0.3499    0.9604 H   0  0  0  0  0  0  0  0  0  0  0  0
    0.5178   -0.5077   -0.8067 H   0  0  0  0  0  0  0  0  0  0  0  0
    2.7938    0.6820    0.8642 H   0  0  0  0  0  0  0  0  0  0  0  0
    2.7938    0.5249   -0.8949 H   0  0  0  0  0  0  0  0  0  0  0  0
    2.5731   -1.9617   -0.6723 H   0  0  0  0  0  0  0  0  0  0  0  0
    2.5731   -1.8047    1.0858 H   0  0  0  0  0  0  0  0  0  0  0  0
    4.8444   -0.7563    0.9928 H   0  0  0  0  0  0  0  0  0  0  0  0
    4.8444   -0.9134   -0.7665 H   0  0  0  0  0  0  0  0  0  0  0  0
    4.5946   -3.3948   -0.5451 H   0  0  0  0  0  0  0  0  0  0  0  0
    4.5946   -3.2376    1.2147 H   0  0  0  0  0  0  0  0  0  0  0  0
    6.8678   -2.2015    1.1207 H   0  0  0  0  0  0  0  0  0  0  0  0
    6.8678   -2.3585   -0.6363 H   0  0  0  0  0  0  0  0  0  0  0  0
    6.6075   -4.8445   -0.4175 H   0  0  0  0  0  0  0  0  0  0  0  0
    6.6075   -4.6870    1.3460 H   0  0  0  0  0  0  0  0  0  0  0  0
    8.8428   -3.6157    1.2522 H   0  0  0  0  0  0  0  0  0  0  0  0
    8.8428   -3.7735   -0.5151 H   0  0  0  0  0  0  0  0  0  0  0  0
    8.7324   -6.2501   -0.2945 H   0  0  0  0  0  0  0  0  0  0  0  0
    8.7324   -6.0921    1.4740 H   0  0  0  0  0  0  0  0  0  0  0  0
   10.7755   -3.4748    0.3489 H   0  0  0  0  0  0  0  0  0  0  0  0
   12.0056   -4.4178   -0.4698 H   0  0  0  0  0  0  0  0  0  0  0  0
   12.0056   -4.2578    1.3218 H   0  0  0  0  0  0  0  0  0  0  0  0
  1  2  1  0  0  0  0
  1 13  1  0  0  0  0
  1 14  1  0  0  0  0
  1 15  1  0  0  0  0
  2  3  1  0  0  0  0
  2 16  1  0  0  0  0
  2 17  1  0  0  0  0
  3  4  1  0  0  0  0
  3 18  1  0  0  0  0
  3 19  1  0  0  0  0
  4  5  1  0  0  0  0
  4 20  1  0  0  0  0
  4 21  1  0  0  0  0
  5  6  1  0  0  0  0
  5 22  1  0  0  0  0
  5 23  1  0  0  0  0
  6  7  1  0  0  0  0
  6 24  1  0  0  0  0
  6 25  1  0  0  0  0
  7  8  1  0  0  0  0
  7 26  1  0  0  0  0
  7 27  1  0  0  0  0
  8  9  1  0  0  0  0
  8 28  1  0  0  0  0
  8 29  1  0  0  0  0
  9 10  1  0  0  0  0
  9 30  1  0  0  0  0
  9 31  1  0  0  0  0
 10 11  1  0  0  0  0
 10 12  2  0  0  0  0
 11 32  1  0  0  0  0
 11 33  1  0  0  0  0
 11 34  1  0  0  0  0
M  END
$$$$
