
 OpenBabel07222214433D

 35 34  0  0  0  0  0  0  0  0999 V2000
    1.0268   -0.0073   -0.1040 C   0  0  0  0  0  0  0  0  0  0  0  0
    2.5495   -0.0129   -0.1253 C   0  0  0  0  0  0  0  0  0  0  0  0
    3.0961   -0.3665   -1.5149 C   0  0  0  0  0  0  0  0  0  0  0  0
    4.6297   -0.3769   -1.5446 C   0  0  0  0  0  0  0  0  0  0  0  0
    5.1174   -0.7171   -2.8655 O   0  0  0  0  0  0  0  0  0  0  0  0
    6.4891   -0.7355   -2.9802 C   0  0  0  0  0  0  0  0  0  0  0  0
    7.2460   -0.5188   -2.0389 O   0  0  0  0  0  0  0  0  0  0  0  0
    6.9608   -1.0759   -4.4172 C   0  0  0  0  0  0  0  0  0  0  0  0
    6.3953   -0.0440   -5.3923 C   0  0  0  0  0  0  0  0  0  0  0  0
    8.4194   -1.0737   -4.4754 O   0  0  0  0  0  0  0  0  0  0  0  0
    8.9947   -1.4625   -5.6486 C   0  0  0  0  0  0  0  0  0  0  0  0
    8.3649   -1.8192   -6.6399 O   0  0  0  0  0  0  0  0  0  0  0  0
   10.5108   -1.4102   -5.5956 C   0  0  0  0  0  0  0  0  0  0  0  0
   11.0983   -1.7517   -6.9732 C   0  0  0  0  0  0  0  0  0  0  0  0
   12.6167   -1.7530   -6.9868 C   0  0  0  0  0  0  0  0  0  0  0  0
    0.6566    0.2463    0.8953 H   0  0  0  0  0  0  0  0  0  0  0  0
    0.6279   -0.9908   -0.3718 H   0  0  0  0  0  0  0  0  0  0  0  0
    0.6280    0.7296   -0.8084 H   0  0  0  0  0  0  0  0  0  0  0  0
    2.9121   -0.7344    0.6167 H   0  0  0  0  0  0  0  0  0  0  0  0
    2.9124    0.9752    0.1823 H   0  0  0  0  0  0  0  0  0  0  0  0
    2.7183    0.3506   -2.2540 H   0  0  0  0  0  0  0  0  0  0  0  0
    2.7159   -1.3480   -1.8229 H   0  0  0  0  0  0  0  0  0  0  0  0
    4.9986   -1.1153   -0.8233 H   0  0  0  0  0  0  0  0  0  0  0  0
    5.0004    0.6176   -1.2689 H   0  0  0  0  0  0  0  0  0  0  0  0
    6.6086   -2.0900   -4.6467 H   0  0  0  0  0  0  0  0  0  0  0  0
    6.7648    0.9559   -5.1435 H   0  0  0  0  0  0  0  0  0  0  0  0
    5.3023   -0.0308   -5.3801 H   0  0  0  0  0  0  0  0  0  0  0  0
    6.6989   -0.2350   -6.4252 H   0  0  0  0  0  0  0  0  0  0  0  0
   10.8643   -2.1355   -4.8549 H   0  0  0  0  0  0  0  0  0  0  0  0
   10.8357   -0.4064   -5.2993 H   0  0  0  0  0  0  0  0  0  0  0  0
   10.7360   -1.0329   -7.7192 H   0  0  0  0  0  0  0  0  0  0  0  0
   10.7423   -2.7392   -7.2928 H   0  0  0  0  0  0  0  0  0  0  0  0
   13.0132   -0.7687   -6.7213 H   0  0  0  0  0  0  0  0  0  0  0  0
   12.9840   -2.0068   -7.9876 H   0  0  0  0  0  0  0  0  0  0  0  0
   13.0143   -2.4920   -6.2848 H   0  0  0  0  0  0  0  0  0  0  0  0
  1  2  1  0  0  0  0
  1 16  1  0  0  0  0
  1 17  1  0  0  0  0
  1 18  1  0  0  0  0
  2  3  1  0  0  0  0
  2 19  1  0  0  0  0
  2 20  1  0  0  0  0
  3  4  1  0  0  0  0
  3 21  1  0  0  0  0
  3 22  1  0  0  0  0
  4  5  1  0  0  0  0
  4 23  1  0  0  0  0
  4 24  1  0  0  0  0
  5  6  1  0  0  0  0
  6  7  2  0  0  0  0
  6  8  1  0  0  0  0
  8  9  1  0  0  0  0
  8 10  1  0  0  0  0
  8 25  1  0  0  0  0
  9 26  1  0  0  0  0
  9 27  1  0  0  0  0
  9 28  1  0  0  0  0
 10 11  1  0  0  0  0
 11 12  2  0  0  0  0
 11 13  1  0  0  0  0
 13 14  1  0  0  0  0
 13 29  1  0  0  0  0
 13 30  1  0  0  0  0
 14 15  1  0  0  0  0
 14 31  1  0  0  0  0
 14 32  1  0  0  0  0
 15 33  1  0  0  0  0
 15 34  1  0  0  0  0
 15 35  1  0  0  0  0
M  END
$$$$
