
 OpenBabel07222214433D

 19 18  0  0  0  0  0  0  0  0999 V2000
    1.0640   -0.0489    0.0484 C   0  0  0  0  0  0  0  0  0  0  0  0
    2.5837   -0.0428    0.0532 C   0  0  0  0  0  0  0  0  0  0  0  0
    3.1075    1.0768    0.9441 C   0  0  0  0  0  0  0  0  0  0  0  0
    4.6318    1.1172    0.9762 C   0  0  0  0  0  0  0  0  0  0  0  0
    5.1235    2.2408    1.8702 C   0  0  0  0  0  0  0  0  0  0  0  0
    4.3557    2.9952    2.4705 O   0  0  0  0  0  0  0  0  0  0  0  0
    6.6103    2.4136    2.0077 C   0  0  0  0  0  0  0  0  0  0  0  0
    0.6872   -0.8521   -0.5907 H   0  0  0  0  0  0  0  0  0  0  0  0
    0.6727    0.9019   -0.3282 H   0  0  0  0  0  0  0  0  0  0  0  0
    0.6727   -0.2022    1.0595 H   0  0  0  0  0  0  0  0  0  0  0  0
    2.9516    0.0893   -0.9707 H   0  0  0  0  0  0  0  0  0  0  0  0
    2.9516   -1.0109    0.4120 H   0  0  0  0  0  0  0  0  0  0  0  0
    2.7231    0.9445    1.9636 H   0  0  0  0  0  0  0  0  0  0  0  0
    2.7231    2.0406    0.5861 H   0  0  0  0  0  0  0  0  0  0  0  0
    5.0255    1.2782   -0.0336 H   0  0  0  0  0  0  0  0  0  0  0  0
    5.0255    0.1694    1.3600 H   0  0  0  0  0  0  0  0  0  0  0  0
    7.1461    1.6685    1.4148 H   0  0  0  0  0  0  0  0  0  0  0  0
    6.8856    2.2947    3.0586 H   0  0  0  0  0  0  0  0  0  0  0  0
    6.8856    3.4110    1.6557 H   0  0  0  0  0  0  0  0  0  0  0  0
  1  2  1  0  0  0  0
  1  8  1  0  0  0  0
  1  9  1  0  0  0  0
  1 10  1  0  0  0  0
  2  3  1  0  0  0  0
  2 11  1  0  0  0  0
  2 12  1  0  0  0  0
  3  4  1  0  0  0  0
  3 13  1  0  0  0  0
  3 14  1  0  0  0  0
  4  5  1  0  0  0  0
  4 15  1  0  0  0  0
  4 16  1  0  0  0  0
  5  6  2  0  0  0  0
  5  7  1  0  0  0  0
  7 17  1  0  0  0  0
  7 18  1  0  0  0  0
  7 19  1  0  0  0  0
M  END
$$$$
