
 OpenBabel07202215583D

 10  9  0  0  0  0  0  0  0  0999 V2000
    1.0722   -0.0160    0.1341 C   0  0  0  0  0  0  0  0  0  0  0  0
    2.8727    0.0725   -0.0269 S   0  0  0  0  0  0  0  0  0  0  0  0
    3.3445   -0.9628    1.3839 C   0  0  0  0  0  0  0  0  0  0  0  0
    5.1466   -1.0182    1.5401 S   0  0  0  0  0  0  0  0  0  0  0  0
    0.6178    0.5867   -0.6571 H   0  0  0  0  0  0  0  0  0  0  0  0
    0.7464    0.3833    1.0986 H   0  0  0  0  0  0  0  0  0  0  0  0
    0.7237   -1.0464    0.0235 H   0  0  0  0  0  0  0  0  0  0  0  0
    2.9772   -1.9832    1.2359 H   0  0  0  0  0  0  0  0  0  0  0  0
    2.9268   -0.5601    2.3090 H   0  0  0  0  0  0  0  0  0  0  0  0
    5.3828   -1.4477    0.2923 H   0  0  0  0  0  0  0  0  0  0  0  0
  1  2  1  0  0  0  0
  1  5  1  0  0  0  0
  1  6  1  0  0  0  0
  1  7  1  0  0  0  0
  2  3  1  0  0  0  0
  3  4  1  0  0  0  0
  3  8  1  0  0  0  0
  3  9  1  0  0  0  0
  4 10  1  0  0  0  0
M  END
$$$$
