
 OpenBabel07202215583D

 30 30  0  0  0  0  0  0  0  0999 V2000
    0.8648    0.0685    0.0531 C   0  0  0  0  0  0  0  0  0  0  0  0
    2.3677    0.0379   -0.0138 C   0  0  0  0  0  0  0  0  0  0  0  0
    2.7919   -0.0071   -1.4855 C   0  0  0  0  0  0  0  0  0  0  0  0
    4.2867   -0.0666   -1.5096 C   0  0  0  0  0  0  0  0  0  0  0  0
    4.9463    0.0532   -2.8785 C   0  0  0  0  0  0  0  0  0  0  0  0
    6.4926    0.1325   -2.8078 C   0  0  0  0  0  0  0  0  0  0  0  0
    7.1139    0.0422   -1.4127 C   0  0  0  0  0  0  0  0  0  0  0  0
    6.7354    1.2577   -0.5530 C   0  0  0  0  0  0  0  0  0  0  0  0
    6.2157    2.4401   -1.3890 C   0  0  0  0  0  0  0  0  0  0  0  0
    6.9024    2.5278   -2.7257 C   0  0  0  0  0  0  0  0  0  0  0  0
    7.2895    3.5829   -3.1924 O   0  0  0  0  0  0  0  0  0  0  0  0
    6.9634    1.3571   -3.4223 O   0  0  0  0  0  0  0  0  0  0  0  0
    0.5258    0.0669    1.0903 H   0  0  0  0  0  0  0  0  0  0  0  0
    0.4593   -0.8083   -0.4586 H   0  0  0  0  0  0  0  0  0  0  0  0
    0.4891    0.9684   -0.4432 H   0  0  0  0  0  0  0  0  0  0  0  0
    2.7626   -0.8323    0.5264 H   0  0  0  0  0  0  0  0  0  0  0  0
    2.7792    0.9255    0.4910 H   0  0  0  0  0  0  0  0  0  0  0  0
    2.4599    0.9103   -1.9872 H   0  0  0  0  0  0  0  0  0  0  0  0
    2.3775   -0.8715   -2.0051 H   0  0  0  0  0  0  0  0  0  0  0  0
    4.6565   -0.9403   -0.9643 H   0  0  0  0  0  0  0  0  0  0  0  0
    4.5124    0.7990   -0.9101 H   0  0  0  0  0  0  0  0  0  0  0  0
    4.5515    0.9243   -3.4170 H   0  0  0  0  0  0  0  0  0  0  0  0
    4.6584   -0.8236   -3.4697 H   0  0  0  0  0  0  0  0  0  0  0  0
    6.8978   -0.6803   -3.4253 H   0  0  0  0  0  0  0  0  0  0  0  0
    8.2062    0.0327   -1.5063 H   0  0  0  0  0  0  0  0  0  0  0  0
    6.8440   -0.9037   -0.9274 H   0  0  0  0  0  0  0  0  0  0  0  0
    7.5946    1.5698    0.0439 H   0  0  0  0  0  0  0  0  0  0  0  0
    6.0066    0.9581    0.2142 H   0  0  0  0  0  0  0  0  0  0  0  0
    6.3346    3.3677   -0.8258 H   0  0  0  0  0  0  0  0  0  0  0  0
    5.1456    2.4180   -1.6311 H   0  0  0  0  0  0  0  0  0  0  0  0
  1  2  1  0  0  0  0
  1 13  1  0  0  0  0
  1 14  1  0  0  0  0
  1 15  1  0  0  0  0
  2  3  1  0  0  0  0
  2 16  1  0  0  0  0
  2 17  1  0  0  0  0
  3  4  1  0  0  0  0
  3 18  1  0  0  0  0
  3 19  1  0  0  0  0
  4  5  1  0  0  0  0
  4 20  1  0  0  0  0
  4 21  1  0  0  0  0
  5  6  1  0  0  0  0
  5 22  1  0  0  0  0
  5 23  1  0  0  0  0
  6  7  1  0  0  0  0
  6 12  1  0  0  0  0
  6 24  1  0  0  0  0
  7  8  1  0  0  0  0
  7 25  1  0  0  0  0
  7 26  1  0  0  0  0
  8  9  1  0  0  0  0
  8 27  1  0  0  0  0
  8 28  1  0  0  0  0
  9 10  1  0  0  0  0
  9 29  1  0  0  0  0
  9 30  1  0  0  0  0
 10 11  2  0  0  0  0
 10 12  1  0  0  0  0
M  END
$$$$
