
 OpenBabel07222214433D

 14 13  0  0  0  0  0  0  0  0999 V2000
    1.0080   -0.0612    0.0745 C   0  0  0  0  0  0  0  0  0  0  0  0
    2.5249   -0.0756    0.0622 C   0  0  0  0  0  0  0  0  0  0  0  0
    3.1140    0.9940    0.9727 C   0  0  0  0  0  0  0  0  0  0  0  0
    4.6257    1.0545    1.0242 C   0  0  0  0  0  0  0  0  0  0  0  0
    5.3054    0.1692    0.2706 O   0  0  0  0  0  0  0  0  0  0  0  0
    5.2162    1.8725    1.7205 O   0  0  0  0  0  0  0  0  0  0  0  0
    0.6239   -0.8415   -0.5898 H   0  0  0  0  0  0  0  0  0  0  0  0
    0.6231    0.9029   -0.2715 H   0  0  0  0  0  0  0  0  0  0  0  0
    0.6231   -0.2488    1.0814 H   0  0  0  0  0  0  0  0  0  0  0  0
    2.8718    0.0815   -0.9658 H   0  0  0  0  0  0  0  0  0  0  0  0
    2.8718   -1.0653    0.3814 H   0  0  0  0  0  0  0  0  0  0  0  0
    2.7603    0.8298    1.9981 H   0  0  0  0  0  0  0  0  0  0  0  0
    2.7603    1.9800    0.6468 H   0  0  0  0  0  0  0  0  0  0  0  0
    4.7879   -0.4581   -0.2634 H   0  0  0  0  0  0  0  0  0  0  0  0
  1  2  1  0  0  0  0
  1  7  1  0  0  0  0
  1  8  1  0  0  0  0
  1  9  1  0  0  0  0
  2  3  1  0  0  0  0
  2 10  1  0  0  0  0
  2 11  1  0  0  0  0
  3  4  1  0  0  0  0
  3 12  1  0  0  0  0
  3 13  1  0  0  0  0
  4  5  1  0  0  0  0
  4  6  2  0  0  0  0
  5 14  1  0  0  0  0
M  END
$$$$
