
 OpenBabel07222214433D

 40 39  0  0  0  0  0  0  0  0999 V2000
    0.9612   -0.0622    0.0780 C   0  0  0  0  0  0  0  0  0  0  0  0
    2.4772   -0.0671    0.0725 C   0  0  0  0  0  0  0  0  0  0  0  0
    3.0006   -1.0142   -0.9977 C   0  0  0  0  0  0  0  0  0  0  0  0
    4.5206   -1.0210   -1.0054 C   0  0  0  0  0  0  0  0  0  0  0  0
    5.0339   -1.9689   -2.0765 C   0  0  0  0  0  0  0  0  0  0  0  0
    6.5525   -1.9743   -2.0826 C   0  0  0  0  0  0  0  0  0  0  0  0
    7.0649   -2.9216   -3.1530 C   0  0  0  0  0  0  0  0  0  0  0  0
    8.5835   -2.9270   -3.1591 C   0  0  0  0  0  0  0  0  0  0  0  0
    9.0973   -3.8748   -4.2301 C   0  0  0  0  0  0  0  0  0  0  0  0
   10.6175   -3.8818   -4.2381 C   0  0  0  0  0  0  0  0  0  0  0  0
   11.1404   -4.8291   -5.3085 C   0  0  0  0  0  0  0  0  0  0  0  0
   12.6613   -4.8334   -5.3133 C   0  0  0  0  0  0  0  0  0  0  0  0
   13.1928   -5.7650   -6.3660 C   0  0  0  0  0  0  0  0  0  0  0  0
   14.3954   -5.9326   -6.5554 O   0  0  0  0  0  0  0  0  0  0  0  0
    0.5873    0.6185    0.8471 H   0  0  0  0  0  0  0  0  0  0  0  0
    0.5722   -1.0645    0.2840 H   0  0  0  0  0  0  0  0  0  0  0  0
    0.5722    0.2641   -0.8918 H   0  0  0  0  0  0  0  0  0  0  0  0
    2.8483   -0.3749    1.0571 H   0  0  0  0  0  0  0  0  0  0  0  0
    2.8483    0.9476   -0.1133 H   0  0  0  0  0  0  0  0  0  0  0  0
    2.6279   -0.7074   -1.9829 H   0  0  0  0  0  0  0  0  0  0  0  0
    2.6279   -2.0294   -0.8130 H   0  0  0  0  0  0  0  0  0  0  0  0
    4.8983   -1.3313   -0.0235 H   0  0  0  0  0  0  0  0  0  0  0  0
    4.8983   -0.0086   -1.1940 H   0  0  0  0  0  0  0  0  0  0  0  0
    4.6588   -1.6603   -3.0602 H   0  0  0  0  0  0  0  0  0  0  0  0
    4.6588   -2.9828   -1.8898 H   0  0  0  0  0  0  0  0  0  0  0  0
    6.9286   -2.2836   -1.0997 H   0  0  0  0  0  0  0  0  0  0  0  0
    6.9286   -0.9610   -2.2701 H   0  0  0  0  0  0  0  0  0  0  0  0
    6.6886   -2.6122   -4.1359 H   0  0  0  0  0  0  0  0  0  0  0  0
    6.6886   -3.9348   -2.9654 H   0  0  0  0  0  0  0  0  0  0  0  0
    8.9584   -3.2355   -2.1754 H   0  0  0  0  0  0  0  0  0  0  0  0
    8.9584   -1.9130   -3.3457 H   0  0  0  0  0  0  0  0  0  0  0  0
    8.7196   -3.5646   -5.2121 H   0  0  0  0  0  0  0  0  0  0  0  0
    8.7196   -4.8872   -4.0416 H   0  0  0  0  0  0  0  0  0  0  0  0
   10.9903   -4.1890   -3.2531 H   0  0  0  0  0  0  0  0  0  0  0  0
   10.9903   -2.8668   -4.4232 H   0  0  0  0  0  0  0  0  0  0  0  0
   10.7616   -4.5246   -6.2924 H   0  0  0  0  0  0  0  0  0  0  0  0
   10.7616   -5.8427   -5.1258 H   0  0  0  0  0  0  0  0  0  0  0  0
   13.0391   -5.1633   -4.3399 H   0  0  0  0  0  0  0  0  0  0  0  0
   13.0391   -3.8271   -5.5224 H   0  0  0  0  0  0  0  0  0  0  0  0
   12.4481   -6.3040   -6.9750 H   0  0  0  0  0  0  0  0  0  0  0  0
  1  2  1  0  0  0  0
  1 15  1  0  0  0  0
  1 16  1  0  0  0  0
  1 17  1  0  0  0  0
  2  3  1  0  0  0  0
  2 18  1  0  0  0  0
  2 19  1  0  0  0  0
  3  4  1  0  0  0  0
  3 20  1  0  0  0  0
  3 21  1  0  0  0  0
  4  5  1  0  0  0  0
  4 22  1  0  0  0  0
  4 23  1  0  0  0  0
  5  6  1  0  0  0  0
  5 24  1  0  0  0  0
  5 25  1  0  0  0  0
  6  7  1  0  0  0  0
  6 26  1  0  0  0  0
  6 27  1  0  0  0  0
  7  8  1  0  0  0  0
  7 28  1  0  0  0  0
  7 29  1  0  0  0  0
  8  9  1  0  0  0  0
  8 30  1  0  0  0  0
  8 31  1  0  0  0  0
  9 10  1  0  0  0  0
  9 32  1  0  0  0  0
  9 33  1  0  0  0  0
 10 11  1  0  0  0  0
 10 34  1  0  0  0  0
 10 35  1  0  0  0  0
 11 12  1  0  0  0  0
 11 36  1  0  0  0  0
 11 37  1  0  0  0  0
 12 13  1  0  0  0  0
 12 38  1  0  0  0  0
 12 39  1  0  0  0  0
 13 14  2  0  0  0  0
 13 40  1  0  0  0  0
M  END
$$$$
