
 OpenBabel07122215493D

 19 18  0  0  0  0  0  0  0  0999 V2000
    1.0215    0.0788   -0.0168 C   0  0  0  0  0  0  0  0  0  0  0  0
    2.5374    0.0844   -0.0122 C   0  0  0  0  0  0  0  0  0  0  0  0
    3.0994    1.2038    0.8165 C   0  0  0  0  0  0  0  0  0  0  0  0
    4.4199    1.4038    0.9629 C   0  0  0  0  0  0  0  0  0  0  0  0
    5.4475    0.5247    0.3104 C   0  0  0  0  0  0  0  0  0  0  0  0
    6.8752    0.9463    0.6276 C   0  0  0  0  0  0  0  0  0  0  0  0
    7.7953    0.0761   -0.0210 O   0  0  0  0  0  0  0  0  0  0  0  0
    0.6545   -0.7504   -0.6292 H   0  0  0  0  0  0  0  0  0  0  0  0
    0.6286    1.0123   -0.4319 H   0  0  0  0  0  0  0  0  0  0  0  0
    0.6283   -0.0432    0.9974 H   0  0  0  0  0  0  0  0  0  0  0  0
    2.8922    0.1792   -1.0454 H   0  0  0  0  0  0  0  0  0  0  0  0
    2.8917   -0.8760    0.3809 H   0  0  0  0  0  0  0  0  0  0  0  0
    2.4070    1.8800    1.3133 H   0  0  0  0  0  0  0  0  0  0  0  0
    4.7604    2.2371    1.5738 H   0  0  0  0  0  0  0  0  0  0  0  0
    5.3104    0.5328   -0.7784 H   0  0  0  0  0  0  0  0  0  0  0  0
    5.3057   -0.5141    0.6352 H   0  0  0  0  0  0  0  0  0  0  0  0
    7.0660    0.9134    1.7050 H   0  0  0  0  0  0  0  0  0  0  0  0
    7.0636    1.9649    0.2742 H   0  0  0  0  0  0  0  0  0  0  0  0
    7.6196   -0.8251    0.3003 H   0  0  0  0  0  0  0  0  0  0  0  0
  1  2  1  0  0  0  0
  1  8  1  0  0  0  0
  1  9  1  0  0  0  0
  1 10  1  0  0  0  0
  2  3  1  0  0  0  0
  2 11  1  0  0  0  0
  2 12  1  0  0  0  0
  3  4  2  0  0  0  0
  3 13  1  0  0  0  0
  4  5  1  0  0  0  0
  4 14  1  0  0  0  0
  5  6  1  0  0  0  0
  5 15  1  0  0  0  0
  5 16  1  0  0  0  0
  6  7  1  0  0  0  0
  6 17  1  0  0  0  0
  6 18  1  0  0  0  0
  7 19  1  0  0  0  0
M  END
$$$$
