
 OpenBabel07202215583D

 24 24  0  0  0  0  0  0  0  0999 V2000
    1.0395   -0.0818   -0.1099 C   0  0  0  0  0  0  0  0  0  0  0  0
    2.5595   -0.0911   -0.1502 C   0  0  0  0  0  0  0  0  0  0  0  0
    3.0746    0.7622    0.9849 C   0  0  0  0  0  0  0  0  0  0  0  0
    4.5954    0.8076    1.0844 C   0  0  0  0  0  0  0  0  0  0  0  0
    5.0661    1.6938    2.2449 C   0  0  0  0  0  0  0  0  0  0  0  0
    4.1142    1.7859    3.4249 C   0  0  0  0  0  0  0  0  0  0  0  0
    4.2714    3.1925    3.9252 C   0  0  0  0  0  0  0  0  0  0  0  0
    4.8397    3.9165    2.7438 C   0  0  0  0  0  0  0  0  0  0  0  0
    4.9588    5.1237    2.6549 O   0  0  0  0  0  0  0  0  0  0  0  0
    5.2195    3.0370    1.7753 O   0  0  0  0  0  0  0  0  0  0  0  0
    0.6353   -0.7042   -0.9095 H   0  0  0  0  0  0  0  0  0  0  0  0
    0.6548    0.9374   -0.2265 H   0  0  0  0  0  0  0  0  0  0  0  0
    0.6711   -0.4671    0.8486 H   0  0  0  0  0  0  0  0  0  0  0  0
    2.9227    0.2919   -1.1075 H   0  0  0  0  0  0  0  0  0  0  0  0
    2.9255   -1.1161   -0.0260 H   0  0  0  0  0  0  0  0  0  0  0  0
    2.6700    0.3084    1.8969 H   0  0  0  0  0  0  0  0  0  0  0  0
    2.6806    1.7837    0.9003 H   0  0  0  0  0  0  0  0  0  0  0  0
    5.0108    1.1770    0.1373 H   0  0  0  0  0  0  0  0  0  0  0  0
    4.9692   -0.2122    1.2304 H   0  0  0  0  0  0  0  0  0  0  0  0
    6.0592    1.3558    2.5681 H   0  0  0  0  0  0  0  0  0  0  0  0
    4.2984    1.0085    4.1707 H   0  0  0  0  0  0  0  0  0  0  0  0
    3.0589    1.7053    3.1586 H   0  0  0  0  0  0  0  0  0  0  0  0
    4.9516    3.2395    4.7740 H   0  0  0  0  0  0  0  0  0  0  0  0
    3.2923    3.6126    4.1781 H   0  0  0  0  0  0  0  0  0  0  0  0
  1  2  1  0  0  0  0
  1 11  1  0  0  0  0
  1 12  1  0  0  0  0
  1 13  1  0  0  0  0
  2  3  1  0  0  0  0
  2 14  1  0  0  0  0
  2 15  1  0  0  0  0
  3  4  1  0  0  0  0
  3 16  1  0  0  0  0
  3 17  1  0  0  0  0
  4  5  1  0  0  0  0
  4 18  1  0  0  0  0
  4 19  1  0  0  0  0
  5  6  1  0  0  0  0
  5 10  1  0  0  0  0
  5 20  1  0  0  0  0
  6  7  1  0  0  0  0
  6 21  1  0  0  0  0
  6 22  1  0  0  0  0
  7  8  1  0  0  0  0
  7 23  1  0  0  0  0
  7 24  1  0  0  0  0
  8  9  2  0  0  0  0
  8 10  1  0  0  0  0
M  END
$$$$
