
 OpenBabel07122215493D

 24 24  0  0  0  0  0  0  0  0999 V2000
    1.0945    0.0511   -0.0413 C   0  0  0  0  0  0  0  0  0  0  0  0
    2.5895    0.0419   -0.0934 C   0  0  0  0  0  0  0  0  0  0  0  0
    3.2328   -0.0784   -1.1324 O   0  0  0  0  0  0  0  0  0  0  0  0
    3.1257    0.1824    1.1557 O   0  0  0  0  0  0  0  0  0  0  0  0
    4.5573    0.1776    1.1342 C   0  0  0  0  0  0  0  0  0  0  0  0
    5.1666    0.3278    2.5352 C   0  0  0  0  0  0  0  0  0  0  0  0
    6.6858    0.3522    2.5348 C   0  0  0  0  0  0  0  0  0  0  0  0
    7.3928    0.4998    3.7376 C   0  0  0  0  0  0  0  0  0  0  0  0
    8.7826    0.6727    3.7245 C   0  0  0  0  0  0  0  0  0  0  0  0
    9.4902    0.6164    2.5244 C   0  0  0  0  0  0  0  0  0  0  0  0
    8.8086    0.4236    1.3315 C   0  0  0  0  0  0  0  0  0  0  0  0
    7.4231    0.2977    1.3399 C   0  0  0  0  0  0  0  0  0  0  0  0
    0.7010   -0.0706   -1.0559 H   0  0  0  0  0  0  0  0  0  0  0  0
    0.7380    1.0054    0.3528 H   0  0  0  0  0  0  0  0  0  0  0  0
    0.7360   -0.7818    0.5675 H   0  0  0  0  0  0  0  0  0  0  0  0
    4.8932    1.0131    0.5052 H   0  0  0  0  0  0  0  0  0  0  0  0
    4.8986   -0.7698    0.6968 H   0  0  0  0  0  0  0  0  0  0  0  0
    4.8035   -0.4793    3.1834 H   0  0  0  0  0  0  0  0  0  0  0  0
    4.8046    1.2672    2.9744 H   0  0  0  0  0  0  0  0  0  0  0  0
    6.8727    0.4990    4.6937 H   0  0  0  0  0  0  0  0  0  0  0  0
    9.3177    0.8688    4.6503 H   0  0  0  0  0  0  0  0  0  0  0  0
   10.5709    0.7215    2.5147 H   0  0  0  0  0  0  0  0  0  0  0  0
    9.3397    0.3917    0.3844 H   0  0  0  0  0  0  0  0  0  0  0  0
    6.9401    0.1681    0.3758 H   0  0  0  0  0  0  0  0  0  0  0  0
  1  2  1  0  0  0  0
  1 13  1  0  0  0  0
  1 14  1  0  0  0  0
  1 15  1  0  0  0  0
  2  3  2  0  0  0  0
  2  4  1  0  0  0  0
  4  5  1  0  0  0  0
  5  6  1  0  0  0  0
  5 16  1  0  0  0  0
  5 17  1  0  0  0  0
  6  7  1  0  0  0  0
  6 18  1  0  0  0  0
  6 19  1  0  0  0  0
  7  8  2  0  0  0  0
  7 12  1  0  0  0  0
  8  9  1  0  0  0  0
  8 20  1  0  0  0  0
  9 10  2  0  0  0  0
  9 21  1  0  0  0  0
 10 11  1  0  0  0  0
 10 22  1  0  0  0  0
 11 12  2  0  0  0  0
 11 23  1  0  0  0  0
 12 24  1  0  0  0  0
M  END
$$$$
