
 OpenBabel07122215493D

 23 22  0  0  0  0  0  0  0  0999 V2000
    0.9213    0.0602   -0.0058 C   0  0  0  0  0  0  0  0  0  0  0  0
    2.4418    0.0702    0.0017 C   0  0  0  0  0  0  0  0  0  0  0  0
    2.9786    1.2112    0.8655 C   0  0  0  0  0  0  0  0  0  0  0  0
    4.5084    1.2339    0.8827 C   0  0  0  0  0  0  0  0  0  0  0  0
    5.0404    2.3765    1.7477 C   0  0  0  0  0  0  0  0  0  0  0  0
    6.4799    2.3645    1.7386 O   0  0  0  0  0  0  0  0  0  0  0  0
    7.0456    3.3536    2.4874 C   0  0  0  0  0  0  0  0  0  0  0  0
    6.4225    4.1954    3.1246 O   0  0  0  0  0  0  0  0  0  0  0  0
    8.5466    3.3029    2.4490 C   0  0  0  0  0  0  0  0  0  0  0  0
    0.5475   -0.7597   -0.6266 H   0  0  0  0  0  0  0  0  0  0  0  0
    0.5273    0.9993   -0.4075 H   0  0  0  0  0  0  0  0  0  0  0  0
    0.5273   -0.0715    1.0070 H   0  0  0  0  0  0  0  0  0  0  0  0
    2.8074    0.1749   -1.0264 H   0  0  0  0  0  0  0  0  0  0  0  0
    2.8074   -0.8909    0.3815 H   0  0  0  0  0  0  0  0  0  0  0  0
    2.5988    1.1020    1.8890 H   0  0  0  0  0  0  0  0  0  0  0  0
    2.5988    2.1667    0.4827 H   0  0  0  0  0  0  0  0  0  0  0  0
    4.8937    1.3361   -0.1392 H   0  0  0  0  0  0  0  0  0  0  0  0
    4.8937    0.2781    1.2583 H   0  0  0  0  0  0  0  0  0  0  0  0
    4.6830    2.2536    2.7770 H   0  0  0  0  0  0  0  0  0  0  0  0
    4.6830    3.3339    1.3500 H   0  0  0  0  0  0  0  0  0  0  0  0
    8.9076    2.4802    1.8262 H   0  0  0  0  0  0  0  0  0  0  0  0
    8.9297    3.1614    3.4638 H   0  0  0  0  0  0  0  0  0  0  0  0
    8.9297    4.2412    2.0374 H   0  0  0  0  0  0  0  0  0  0  0  0
  1  2  1  0  0  0  0
  1 10  1  0  0  0  0
  1 11  1  0  0  0  0
  1 12  1  0  0  0  0
  2  3  1  0  0  0  0
  2 13  1  0  0  0  0
  2 14  1  0  0  0  0
  3  4  1  0  0  0  0
  3 15  1  0  0  0  0
  3 16  1  0  0  0  0
  4  5  1  0  0  0  0
  4 17  1  0  0  0  0
  4 18  1  0  0  0  0
  5  6  1  0  0  0  0
  5 19  1  0  0  0  0
  5 20  1  0  0  0  0
  6  7  1  0  0  0  0
  7  8  2  0  0  0  0
  7  9  1  0  0  0  0
  9 21  1  0  0  0  0
  9 22  1  0  0  0  0
  9 23  1  0  0  0  0
M  END
$$$$
