
 OpenBabel07222214433D

 27 26  0  0  0  0  0  0  0  0999 V2000
    0.8842    0.0307   -0.0123 C   0  0  0  0  0  0  0  0  0  0  0  0
    2.3974    0.0533   -0.0251 C   0  0  0  0  0  0  0  0  0  0  0  0
    2.8798    1.3122   -0.7355 C   0  0  0  0  0  0  0  0  0  0  0  0
    4.3844    1.3480   -0.7557 C   0  0  0  0  0  0  0  0  0  0  0  0
    4.9251    2.5972   -1.4606 C   0  0  0  0  0  0  0  0  0  0  0  0
    6.4232    2.4938   -1.4022 C   0  0  0  0  0  0  0  0  0  0  0  0
    6.9086    1.5070   -0.8454 O   0  0  0  0  0  0  0  0  0  0  0  0
    7.2625    3.5759   -2.0129 C   0  0  0  0  0  0  0  0  0  0  0  0
    8.7701    3.4335   -1.9325 C   0  0  0  0  0  0  0  0  0  0  0  0
    9.4695    2.2646   -1.2729 C   0  0  0  0  0  0  0  0  0  0  0  0
    9.4711    4.3235   -2.4347 O   0  0  0  0  0  0  0  0  0  0  0  0
    0.5189   -0.8657    0.4935 H   0  0  0  0  0  0  0  0  0  0  0  0
    0.4946    0.0383   -1.0352 H   0  0  0  0  0  0  0  0  0  0  0  0
    0.4946    0.9103    0.5099 H   0  0  0  0  0  0  0  0  0  0  0  0
    2.7793   -0.8411   -0.5330 H   0  0  0  0  0  0  0  0  0  0  0  0
    2.7793    0.0257    1.0032 H   0  0  0  0  0  0  0  0  0  0  0  0
    2.5053    2.2033   -0.2206 H   0  0  0  0  0  0  0  0  0  0  0  0
    2.5053    1.3321   -1.7644 H   0  0  0  0  0  0  0  0  0  0  0  0
    4.7636    0.4446   -1.2565 H   0  0  0  0  0  0  0  0  0  0  0  0
    4.7636    1.3097    0.2765 H   0  0  0  0  0  0  0  0  0  0  0  0
    4.5996    3.5050   -0.9435 H   0  0  0  0  0  0  0  0  0  0  0  0
    4.5996    2.6239   -2.5050 H   0  0  0  0  0  0  0  0  0  0  0  0
    6.9992    4.5251   -1.5284 H   0  0  0  0  0  0  0  0  0  0  0  0
    6.9992    3.6519   -3.0759 H   0  0  0  0  0  0  0  0  0  0  0  0
    8.8582    1.4911   -0.8364 H   0  0  0  0  0  0  0  0  0  0  0  0
   10.0778    2.6384   -0.4475 H   0  0  0  0  0  0  0  0  0  0  0  0
   10.0778    1.7513   -2.0196 H   0  0  0  0  0  0  0  0  0  0  0  0
  1  2  1  0  0  0  0
  1 12  1  0  0  0  0
  1 13  1  0  0  0  0
  1 14  1  0  0  0  0
  2  3  1  0  0  0  0
  2 15  1  0  0  0  0
  2 16  1  0  0  0  0
  3  4  1  0  0  0  0
  3 17  1  0  0  0  0
  3 18  1  0  0  0  0
  4  5  1  0  0  0  0
  4 19  1  0  0  0  0
  4 20  1  0  0  0  0
  5  6  1  0  0  0  0
  5 21  1  0  0  0  0
  5 22  1  0  0  0  0
  6  7  2  0  0  0  0
  6  8  1  0  0  0  0
  8  9  1  0  0  0  0
  8 23  1  0  0  0  0
  8 24  1  0  0  0  0
  9 10  1  0  0  0  0
  9 11  2  0  0  0  0
 10 25  1  0  0  0  0
 10 26  1  0  0  0  0
 10 27  1  0  0  0  0
M  END
$$$$
