
 OpenBabel07222214433D

 29 29  0  0  1  0  0  0  0  0999 V2000
    2.9480    0.3774    1.3859 C   0  0  0  0  0  0  0  0  0  0  0  0
    2.4731    0.0187   -0.0183 C   0  0  1  0  0  0  0  0  0  0  0  0
    2.9641    1.0581   -1.0345 C   0  0  0  0  0  0  0  0  0  0  0  0
    2.5199    0.6965   -2.4479 C   0  0  0  0  0  0  0  0  0  0  0  0
    2.9743   -0.7199   -2.8507 C   0  0  1  0  0  0  0  0  0  0  0  0
    2.4818   -1.7426   -1.8210 C   0  0  0  0  0  0  0  0  0  0  0  0
    2.9476   -1.3871   -0.4145 C   0  0  2  0  0  0  0  0  0  0  0  0
    2.4379   -2.3604    0.4927 O   0  0  0  0  0  0  0  0  0  0  0  0
    2.5085   -1.1471   -4.2328 C   0  0  0  0  0  0  0  0  0  0  0  0
    1.3497   -0.7410   -4.7842 C   0  0  0  0  0  0  0  0  0  0  0  0
    3.4153   -2.1002   -4.9631 C   0  0  0  0  0  0  0  0  0  0  0  0
    2.5818    1.3668    1.6766 H   0  0  0  0  0  0  0  0  0  0  0  0
    4.0415    0.3863    1.4352 H   0  0  0  0  0  0  0  0  0  0  0  0
    2.5791   -0.3453    2.1203 H   0  0  0  0  0  0  0  0  0  0  0  0
    1.3738    0.0274   -0.0040 H   0  0  0  0  0  0  0  0  0  0  0  0
    4.0581    1.1317   -1.0038 H   0  0  0  0  0  0  0  0  0  0  0  0
    2.5685    2.0487   -0.7796 H   0  0  0  0  0  0  0  0  0  0  0  0
    2.9121    1.4333   -3.1596 H   0  0  0  0  0  0  0  0  0  0  0  0
    1.4269    0.7741   -2.4743 H   0  0  0  0  0  0  0  0  0  0  0  0
    4.0749   -0.7167   -2.8442 H   0  0  0  0  0  0  0  0  0  0  0  0
    2.8180   -2.7569   -2.0693 H   0  0  0  0  0  0  0  0  0  0  0  0
    1.3834   -1.7860   -1.8352 H   0  0  0  0  0  0  0  0  0  0  0  0
    4.0422   -1.4394   -0.3656 H   0  0  0  0  0  0  0  0  0  0  0  0
    1.4682   -2.3556    0.4184 H   0  0  0  0  0  0  0  0  0  0  0  0
    1.0367   -1.0814   -5.7641 H   0  0  0  0  0  0  0  0  0  0  0  0
    0.6646   -0.0779   -4.2689 H   0  0  0  0  0  0  0  0  0  0  0  0
    3.0080   -2.3820   -5.9393 H   0  0  0  0  0  0  0  0  0  0  0  0
    3.5559   -3.0195   -4.3853 H   0  0  0  0  0  0  0  0  0  0  0  0
    4.3950   -1.6405   -5.1290 H   0  0  0  0  0  0  0  0  0  0  0  0
  1 12  1  0  0  0  0
  1 13  1  0  0  0  0
  1 14  1  0  0  0  0
  2  3  1  0  0  0  0
  2  7  1  0  0  0  0
  2  1  1  0  0  0  0
  2 15  1  6  0  0  0
  3  4  1  0  0  0  0
  3 16  1  0  0  0  0
  3 17  1  0  0  0  0
  4  5  1  0  0  0  0
  4 18  1  0  0  0  0
  4 19  1  0  0  0  0
  5  6  1  0  0  0  0
  5  9  1  0  0  0  0
  5 20  1  1  0  0  0
  6  7  1  0  0  0  0
  6 21  1  0  0  0  0
  6 22  1  0  0  0  0
  7  8  1  0  0  0  0
  7 23  1  1  0  0  0
  8 24  1  0  0  0  0
  9 10  2  0  0  0  0
  9 11  1  0  0  0  0
 10 25  1  0  0  0  0
 10 26  1  0  0  0  0
 11 27  1  0  0  0  0
 11 28  1  0  0  0  0
 11 29  1  0  0  0  0
M  END
$$$$
