
 OpenBabel07222214433D

 41 41  0  0  0  0  0  0  0  0999 V2000
    0.9447   -0.0299   -0.0589 C   0  0  0  0  0  0  0  0  0  0  0  0
    2.4517   -0.0764    0.0864 C   0  0  0  0  0  0  0  0  0  0  0  0
    2.9763    1.2269   -0.1729 O   0  0  0  0  0  0  0  0  0  0  0  0
    2.8490   -0.5892    1.5016 C   0  0  0  0  0  0  0  0  0  0  0  0
    2.3876   -2.0401    1.6860 C   0  0  0  0  0  0  0  0  0  0  0  0
    4.3580   -0.5568    1.5915 C   0  0  0  0  0  0  0  0  0  0  0  0
    5.0850   -1.1011    2.7919 C   0  0  0  0  0  0  0  0  0  0  0  0
    6.6293   -1.1037    2.6068 C   0  0  0  0  0  0  0  0  0  0  0  0
    7.1924   -2.3167    3.4039 C   0  0  0  0  0  0  0  0  0  0  0  0
    7.4299   -3.3301    2.3341 C   0  0  0  0  0  0  0  0  0  0  0  0
    7.4673   -2.7708    1.1066 C   0  0  0  0  0  0  0  0  0  0  0  0
    7.6687   -3.5020   -0.1718 C   0  0  0  0  0  0  0  0  0  0  0  0
    7.2772   -1.2688    1.1595 C   0  0  0  0  0  0  0  0  0  0  0  0
    6.5792   -0.7451   -0.1163 C   0  0  0  0  0  0  0  0  0  0  0  0
    8.6273   -0.5253    1.1462 C   0  0  0  0  0  0  0  0  0  0  0  0
    0.6527    0.3861   -1.0258 H   0  0  0  0  0  0  0  0  0  0  0  0
    0.5215    0.6099    0.7215 H   0  0  0  0  0  0  0  0  0  0  0  0
    0.5103   -1.0282    0.0286 H   0  0  0  0  0  0  0  0  0  0  0  0
    2.8737   -0.7286   -0.6911 H   0  0  0  0  0  0  0  0  0  0  0  0
    2.6825    1.8223    0.5356 H   0  0  0  0  0  0  0  0  0  0  0  0
    2.4372    0.0670    2.2746 H   0  0  0  0  0  0  0  0  0  0  0  0
    2.7881   -2.6732    0.8817 H   0  0  0  0  0  0  0  0  0  0  0  0
    1.3025   -2.1297    1.6821 H   0  0  0  0  0  0  0  0  0  0  0  0
    2.7355   -2.4555    2.6338 H   0  0  0  0  0  0  0  0  0  0  0  0
    4.7315    0.4458    1.3683 H   0  0  0  0  0  0  0  0  0  0  0  0
    4.5966   -1.2686    0.8190 H   0  0  0  0  0  0  0  0  0  0  0  0
    4.7462   -2.1220    2.9890 H   0  0  0  0  0  0  0  0  0  0  0  0
    4.8205   -0.5162    3.6826 H   0  0  0  0  0  0  0  0  0  0  0  0
    6.9950   -0.1810    3.0784 H   0  0  0  0  0  0  0  0  0  0  0  0
    6.4901   -2.7010    4.1541 H   0  0  0  0  0  0  0  0  0  0  0  0
    8.1310   -2.0798    3.9148 H   0  0  0  0  0  0  0  0  0  0  0  0
    7.5633   -4.3822    2.5293 H   0  0  0  0  0  0  0  0  0  0  0  0
    7.8223   -4.5723   -0.0104 H   0  0  0  0  0  0  0  0  0  0  0  0
    8.5394   -3.1040   -0.7011 H   0  0  0  0  0  0  0  0  0  0  0  0
    6.7906   -3.3953   -0.8182 H   0  0  0  0  0  0  0  0  0  0  0  0
    5.7633   -1.3787   -0.4730 H   0  0  0  0  0  0  0  0  0  0  0  0
    7.2497   -0.7466   -0.9812 H   0  0  0  0  0  0  0  0  0  0  0  0
    6.2493    0.2909    0.0032 H   0  0  0  0  0  0  0  0  0  0  0  0
    9.3133   -0.8675    1.9233 H   0  0  0  0  0  0  0  0  0  0  0  0
    8.4548    0.5500    1.2869 H   0  0  0  0  0  0  0  0  0  0  0  0
    9.1273   -0.6477    0.1782 H   0  0  0  0  0  0  0  0  0  0  0  0
  1  2  1  0  0  0  0
  1 16  1  0  0  0  0
  1 17  1  0  0  0  0
  1 18  1  0  0  0  0
  2  3  1  0  0  0  0
  2  4  1  0  0  0  0
  2 19  1  0  0  0  0
  3 20  1  0  0  0  0
  4  5  1  0  0  0  0
  4  6  1  0  0  0  0
  4 21  1  0  0  0  0
  5 22  1  0  0  0  0
  5 23  1  0  0  0  0
  5 24  1  0  0  0  0
  6  7  1  0  0  0  0
  6 25  1  0  0  0  0
  6 26  1  0  0  0  0
  7  8  1  0  0  0  0
  7 27  1  0  0  0  0
  7 28  1  0  0  0  0
  8  9  1  0  0  0  0
  8 13  1  0  0  0  0
  8 29  1  0  0  0  0
  9 10  1  0  0  0  0
  9 30  1  0  0  0  0
  9 31  1  0  0  0  0
 10 11  2  0  0  0  0
 10 32  1  0  0  0  0
 11 12  1  0  0  0  0
 11 13  1  0  0  0  0
 12 33  1  0  0  0  0
 12 34  1  0  0  0  0
 12 35  1  0  0  0  0
 13 14  1  0  0  0  0
 13 15  1  0  0  0  0
 14 36  1  0  0  0  0
 14 37  1  0  0  0  0
 14 38  1  0  0  0  0
 15 39  1  0  0  0  0
 15 40  1  0  0  0  0
 15 41  1  0  0  0  0
M  END
$$$$
