
 OpenBabel07222214433D

 10  9  0  0  0  0  0  0  0  0999 V2000
    0.8971   -0.0601   -0.0110 S   0  0  0  0  0  0  0  0  0  0  0  0
    2.7115   -0.0678    0.0403 C   0  0  0  0  0  0  0  0  0  0  0  0
    3.2681    0.1390   -1.3351 C   0  0  0  0  0  0  0  0  0  0  0  0
    4.5826    0.1786   -1.5982 C   0  0  0  0  0  0  0  0  0  0  0  0
    0.6959   -0.2572    1.2995 H   0  0  0  0  0  0  0  0  0  0  0  0
    3.0430   -1.0292    0.4457 H   0  0  0  0  0  0  0  0  0  0  0  0
    3.0430    0.7317    0.7105 H   0  0  0  0  0  0  0  0  0  0  0  0
    2.5769    0.2641   -2.1664 H   0  0  0  0  0  0  0  0  0  0  0  0
    5.3262    0.0611   -0.8167 H   0  0  0  0  0  0  0  0  0  0  0  0
    4.9392    0.3312   -2.6126 H   0  0  0  0  0  0  0  0  0  0  0  0
  1  2  1  0  0  0  0
  1  5  1  0  0  0  0
  2  3  1  0  0  0  0
  2  6  1  0  0  0  0
  2  7  1  0  0  0  0
  3  4  2  0  0  0  0
  3  8  1  0  0  0  0
  4  9  1  0  0  0  0
  4 10  1  0  0  0  0
M  END
$$$$
