
 OpenBabel07222214433D

 31 31  0  0  1  0  0  0  0  0999 V2000
    1.0348   -0.1822    0.0184 C   0  0  0  0  0  0  0  0  0  0  0  0
    2.5680   -0.1052   -0.0501 C   0  0  0  0  0  0  0  0  0  0  0  0
    3.0872   -1.5395   -0.2111 C   0  0  0  0  0  0  0  0  0  0  0  0
    3.0688    0.8531   -1.1791 C   0  0  2  0  0  0  0  0  0  0  0  0
    4.5818    0.6953   -1.4648 C   0  0  0  0  0  0  0  0  0  0  0  0
    5.0865    1.6604   -2.5388 C   0  0  0  0  0  0  0  0  0  0  0  0
    4.7661    3.1146   -2.1920 C   0  0  1  0  0  0  0  0  0  0  0  0
    5.2076    4.0586   -3.3055 C   0  0  0  0  0  0  0  0  0  0  0  0
    3.2731    3.2799   -1.9355 C   0  0  0  0  0  0  0  0  0  0  0  0
    2.7762    2.3386   -0.8456 C   0  0  1  0  0  0  0  0  0  0  0  0
    1.3870    2.6056   -0.6970 O   0  0  0  0  0  0  0  0  0  0  0  0
    0.7124   -0.8936    0.7852 H   0  0  0  0  0  0  0  0  0  0  0  0
    0.6172   -0.5033   -0.9423 H   0  0  0  0  0  0  0  0  0  0  0  0
    0.5739    0.7674    0.2909 H   0  0  0  0  0  0  0  0  0  0  0  0
    2.9346    0.2728    0.9133 H   0  0  0  0  0  0  0  0  0  0  0  0
    2.7716   -1.9648   -1.1698 H   0  0  0  0  0  0  0  0  0  0  0  0
    2.7011   -2.1814    0.5884 H   0  0  0  0  0  0  0  0  0  0  0  0
    4.1777   -1.5881   -0.1492 H   0  0  0  0  0  0  0  0  0  0  0  0
    2.5266    0.5868   -2.0976 H   0  0  0  0  0  0  0  0  0  0  0  0
    4.8073   -0.3197   -1.8101 H   0  0  0  0  0  0  0  0  0  0  0  0
    5.1507    0.8548   -0.5397 H   0  0  0  0  0  0  0  0  0  0  0  0
    4.6329    1.3928   -3.5020 H   0  0  0  0  0  0  0  0  0  0  0  0
    6.1701    1.5363   -2.6555 H   0  0  0  0  0  0  0  0  0  0  0  0
    5.3108    3.3838   -1.2776 H   0  0  0  0  0  0  0  0  0  0  0  0
    4.6905    3.8336   -4.2446 H   0  0  0  0  0  0  0  0  0  0  0  0
    6.2847    3.9789   -3.4794 H   0  0  0  0  0  0  0  0  0  0  0  0
    4.9835    5.0970   -3.0384 H   0  0  0  0  0  0  0  0  0  0  0  0
    2.7029    3.0996   -2.8574 H   0  0  0  0  0  0  0  0  0  0  0  0
    3.0466    4.3143   -1.6475 H   0  0  0  0  0  0  0  0  0  0  0  0
    3.2593    2.5959    0.1045 H   0  0  0  0  0  0  0  0  0  0  0  0
    0.9283    2.2367   -1.4676 H   0  0  0  0  0  0  0  0  0  0  0  0
  1  2  1  0  0  0  0
  1 12  1  0  0  0  0
  1 13  1  0  0  0  0
  1 14  1  0  0  0  0
  2  3  1  0  0  0  0
  2  4  1  0  0  0  0
  2 15  1  0  0  0  0
  3 16  1  0  0  0  0
  3 17  1  0  0  0  0
  3 18  1  0  0  0  0
  4  5  1  0  0  0  0
  4 10  1  0  0  0  0
  4 19  1  6  0  0  0
  5  6  1  0  0  0  0
  5 20  1  0  0  0  0
  5 21  1  0  0  0  0
  6  7  1  0  0  0  0
  6 22  1  0  0  0  0
  6 23  1  0  0  0  0
  7  8  1  0  0  0  0
  7  9  1  0  0  0  0
  7 24  1  1  0  0  0
  8 25  1  0  0  0  0
  8 26  1  0  0  0  0
  8 27  1  0  0  0  0
  9 10  1  0  0  0  0
  9 28  1  0  0  0  0
  9 29  1  0  0  0  0
 10 11  1  0  0  0  0
 10 30  1  1  0  0  0
 11 31  1  0  0  0  0
M  END
$$$$
