
 OpenBabel07122215493D

 27 28  0  0  0  0  0  0  0  0999 V2000
    1.0079    0.0210    0.0508 C   0  0  0  0  0  0  0  0  0  0  0  0
    2.5480    0.0365    0.0540 C   0  0  0  0  0  0  0  0  0  0  0  0
    2.9852    0.0340    1.5289 C   0  0  0  0  0  0  0  0  0  0  0  0
    3.1982   -1.0712   -0.8139 C   0  0  0  0  0  0  0  0  0  0  0  0
    2.6928   -0.7232   -2.2357 C   0  0  0  0  0  0  0  0  0  0  0  0
    2.6815    0.8263   -2.2346 C   0  0  0  0  0  0  0  0  0  0  0  0
    3.1564    1.1755   -0.8035 C   0  0  0  0  0  0  0  0  0  0  0  0
    2.8639    2.5855   -0.3447 C   0  0  0  0  0  0  0  0  0  0  0  0
    4.6288    0.7604   -0.7875 C   0  0  0  0  0  0  0  0  0  0  0  0
    5.5906    1.5162   -0.7989 O   0  0  0  0  0  0  0  0  0  0  0  0
    4.7148   -0.7539   -0.7750 C   0  0  0  0  0  0  0  0  0  0  0  0
    0.6336   -0.8392    0.6135 H   0  0  0  0  0  0  0  0  0  0  0  0
    0.5588   -0.0355   -0.9429 H   0  0  0  0  0  0  0  0  0  0  0  0
    0.6165    0.9319    0.5158 H   0  0  0  0  0  0  0  0  0  0  0  0
    2.5771   -0.8440    2.0412 H   0  0  0  0  0  0  0  0  0  0  0  0
    2.6064    0.9241    2.0431 H   0  0  0  0  0  0  0  0  0  0  0  0
    4.0678    0.0197    1.6762 H   0  0  0  0  0  0  0  0  0  0  0  0
    2.9677   -2.0945   -0.5079 H   0  0  0  0  0  0  0  0  0  0  0  0
    1.6864   -1.1218   -2.4041 H   0  0  0  0  0  0  0  0  0  0  0  0
    3.3348   -1.1305   -3.0229 H   0  0  0  0  0  0  0  0  0  0  0  0
    1.6717    1.2051   -2.4288 H   0  0  0  0  0  0  0  0  0  0  0  0
    3.3421    1.2266   -3.0110 H   0  0  0  0  0  0  0  0  0  0  0  0
    1.7873    2.7852   -0.3529 H   0  0  0  0  0  0  0  0  0  0  0  0
    3.3465    3.3270   -0.9879 H   0  0  0  0  0  0  0  0  0  0  0  0
    3.2252    2.7563    0.6751 H   0  0  0  0  0  0  0  0  0  0  0  0
    5.1898   -1.1033    0.1442 H   0  0  0  0  0  0  0  0  0  0  0  0
    5.2467   -1.1300   -1.6523 H   0  0  0  0  0  0  0  0  0  0  0  0
  1  2  1  0  0  0  0
  1 12  1  0  0  0  0
  1 13  1  0  0  0  0
  1 14  1  0  0  0  0
  2  3  1  0  0  0  0
  2  4  1  0  0  0  0
  2  7  1  0  0  0  0
  3 15  1  0  0  0  0
  3 16  1  0  0  0  0
  3 17  1  0  0  0  0
  4  5  1  0  0  0  0
  4 11  1  0  0  0  0
  4 18  1  0  0  0  0
  5  6  1  0  0  0  0
  5 19  1  0  0  0  0
  5 20  1  0  0  0  0
  6  7  1  0  0  0  0
  6 21  1  0  0  0  0
  6 22  1  0  0  0  0
  7  8  1  0  0  0  0
  7  9  1  0  0  0  0
  8 23  1  0  0  0  0
  8 24  1  0  0  0  0
  8 25  1  0  0  0  0
  9 10  2  0  0  0  0
  9 11  1  0  0  0  0
 11 26  1  0  0  0  0
 11 27  1  0  0  0  0
M  END
$$$$
