
 OpenBabel07222214443D

 31 31  0  0  0  0  0  0  0  0999 V2000
    0.8032    0.0894   -0.0980 C   0  0  0  0  0  0  0  0  0  0  0  0
    2.3268    0.0232    0.0147 C   0  0  0  0  0  0  0  0  0  0  0  0
    2.6739    0.2906    1.4856 C   0  0  0  0  0  0  0  0  0  0  0  0
    2.9831   -1.2421   -0.6622 C   0  0  0  0  0  0  0  0  0  0  0  0
    4.2743   -1.6796    0.0612 C   0  0  0  0  0  0  0  0  0  0  0  0
    4.0008   -2.4194    1.3793 C   0  0  0  0  0  0  0  0  0  0  0  0
    3.0347   -3.5916    1.2161 C   0  0  0  0  0  0  0  0  0  0  0  0
    3.8275   -4.7657    0.6592 C   0  0  0  0  0  0  0  0  0  0  0  0
    1.7797   -3.2257    0.4024 C   0  0  0  0  0  0  0  0  0  0  0  0
    2.0580   -2.4648   -0.8921 C   0  0  0  0  0  0  0  0  0  0  0  0
    2.6117   -3.3674   -1.8621 O   0  0  0  0  0  0  0  0  0  0  0  0
    0.4251    0.9954    0.3875 H   0  0  0  0  0  0  0  0  0  0  0  0
    0.3251   -0.7502    0.4141 H   0  0  0  0  0  0  0  0  0  0  0  0
    0.4759    0.0972   -1.1395 H   0  0  0  0  0  0  0  0  0  0  0  0
    2.7304    0.8862   -0.5343 H   0  0  0  0  0  0  0  0  0  0  0  0
    2.1534   -0.4202    2.1364 H   0  0  0  0  0  0  0  0  0  0  0  0
    2.3521    1.2867    1.7996 H   0  0  0  0  0  0  0  0  0  0  0  0
    3.7506    0.2626    1.6778 H   0  0  0  0  0  0  0  0  0  0  0  0
    3.2901   -0.9162   -1.6691 H   0  0  0  0  0  0  0  0  0  0  0  0
    4.9247   -0.8139    0.2280 H   0  0  0  0  0  0  0  0  0  0  0  0
    4.8606   -2.3334   -0.5954 H   0  0  0  0  0  0  0  0  0  0  0  0
    3.5893   -1.7783    2.1545 H   0  0  0  0  0  0  0  0  0  0  0  0
    4.9528   -2.7467    1.8107 H   0  0  0  0  0  0  0  0  0  0  0  0
    2.6811   -3.8846    2.2141 H   0  0  0  0  0  0  0  0  0  0  0  0
    4.3476   -4.5158   -0.2667 H   0  0  0  0  0  0  0  0  0  0  0  0
    3.1907   -5.6327    0.4819 H   0  0  0  0  0  0  0  0  0  0  0  0
    4.6071   -5.0419    1.3776 H   0  0  0  0  0  0  0  0  0  0  0  0
    1.1398   -2.6020    1.0379 H   0  0  0  0  0  0  0  0  0  0  0  0
    1.1986   -4.1309    0.1877 H   0  0  0  0  0  0  0  0  0  0  0  0
    1.1148   -2.1517   -1.3461 H   0  0  0  0  0  0  0  0  0  0  0  0
    3.5513   -3.4687   -1.7139 H   0  0  0  0  0  0  0  0  0  0  0  0
  1  2  1  0  0  0  0
  1 12  1  0  0  0  0
  1 13  1  0  0  0  0
  1 14  1  0  0  0  0
  2  3  1  0  0  0  0
  2  4  1  0  0  0  0
  2 15  1  0  0  0  0
  3 16  1  0  0  0  0
  3 17  1  0  0  0  0
  3 18  1  0  0  0  0
  4  5  1  0  0  0  0
  4 10  1  0  0  0  0
  4 19  1  0  0  0  0
  5  6  1  0  0  0  0
  5 20  1  0  0  0  0
  5 21  1  0  0  0  0
  6  7  1  0  0  0  0
  6 22  1  0  0  0  0
  6 23  1  0  0  0  0
  7  8  1  0  0  0  0
  7  9  1  0  0  0  0
  7 24  1  0  0  0  0
  8 25  1  0  0  0  0
  8 26  1  0  0  0  0
  8 27  1  0  0  0  0
  9 10  1  0  0  0  0
  9 28  1  0  0  0  0
  9 29  1  0  0  0  0
 10 11  1  0  0  0  0
 10 30  1  0  0  0  0
 11 31  1  0  0  0  0
M  END
$$$$
