
 OpenBabel07202215583D

 17 16  0  0  0  0  0  0  0  0999 V2000
    1.0991   -0.0225    0.0060 C   0  0  0  0  0  0  0  0  0  0  0  0
    2.6194   -0.0184   -0.0003 C   0  0  0  0  0  0  0  0  0  0  0  0
    3.1667    0.7510   -1.1985 C   0  0  0  0  0  0  0  0  0  0  0  0
    4.6931    0.7631   -1.2174 C   0  0  0  0  0  0  0  0  0  0  0  0
    5.1089    1.5054   -2.3733 O   0  0  0  0  0  0  0  0  0  0  0  0
    6.4390    1.6326   -2.5715 C   0  0  0  0  0  0  0  0  0  0  0  0
    6.9282    2.2381   -3.5145 O   0  0  0  0  0  0  0  0  0  0  0  0
    0.7238   -0.5779    0.8710 H   0  0  0  0  0  0  0  0  0  0  0  0
    0.7055   -0.4956   -0.8994 H   0  0  0  0  0  0  0  0  0  0  0  0
    0.7055    0.9976    0.0594 H   0  0  0  0  0  0  0  0  0  0  0  0
    2.9824   -1.0524   -0.0241 H   0  0  0  0  0  0  0  0  0  0  0  0
    2.9824    0.4334    0.9300 H   0  0  0  0  0  0  0  0  0  0  0  0
    2.7940    1.7833   -1.1871 H   0  0  0  0  0  0  0  0  0  0  0  0
    2.7940    0.3111   -2.1325 H   0  0  0  0  0  0  0  0  0  0  0  0
    5.0792   -0.2610   -1.2791 H   0  0  0  0  0  0  0  0  0  0  0  0
    5.0792    1.2453   -0.3119 H   0  0  0  0  0  0  0  0  0  0  0  0
    7.0437    1.1360   -1.7981 H   0  0  0  0  0  0  0  0  0  0  0  0
  1  2  1  0  0  0  0
  1  8  1  0  0  0  0
  1  9  1  0  0  0  0
  1 10  1  0  0  0  0
  2  3  1  0  0  0  0
  2 11  1  0  0  0  0
  2 12  1  0  0  0  0
  3  4  1  0  0  0  0
  3 13  1  0  0  0  0
  3 14  1  0  0  0  0
  4  5  1  0  0  0  0
  4 15  1  0  0  0  0
  4 16  1  0  0  0  0
  5  6  1  0  0  0  0
  6  7  2  0  0  0  0
  6 17  1  0  0  0  0
M  END
$$$$
