
 OpenBabel07222214433D

 30 29  0  0  0  0  0  0  0  0999 V2000
    1.0192   -0.0266   -0.0956 C   0  0  0  0  0  0  0  0  0  0  0  0
    2.5379   -0.0329   -0.0848 C   0  0  0  0  0  0  0  0  0  0  0  0
    3.0696   -0.7467    1.1546 C   0  0  0  0  0  0  0  0  0  0  0  0
    4.5951   -0.7548    1.1677 C   0  0  0  0  0  0  0  0  0  0  0  0
    5.1203   -1.4700    2.4092 C   0  0  0  0  0  0  0  0  0  0  0  0
    6.6458   -1.4783    2.4204 C   0  0  0  0  0  0  0  0  0  0  0  0
    7.1764   -2.1937    3.6595 C   0  0  0  0  0  0  0  0  0  0  0  0
    8.7050   -2.2000    3.6715 C   0  0  0  0  0  0  0  0  0  0  0  0
    9.2274   -2.9161    4.9118 C   0  0  0  0  0  0  0  0  0  0  0  0
   11.0411   -2.8807    4.9548 S   0  0  0  0  0  0  0  0  0  0  0  0
    0.6486    0.4874   -0.9876 H   0  0  0  0  0  0  0  0  0  0  0  0
    0.6256    0.4895    0.7856 H   0  0  0  0  0  0  0  0  0  0  0  0
    0.6256   -1.0478   -0.1002 H   0  0  0  0  0  0  0  0  0  0  0  0
    2.9063    0.9991   -0.1078 H   0  0  0  0  0  0  0  0  0  0  0  0
    2.9063   -0.5304   -0.9891 H   0  0  0  0  0  0  0  0  0  0  0  0
    2.6964   -1.7778    1.1761 H   0  0  0  0  0  0  0  0  0  0  0  0
    2.6965   -0.2486    2.0571 H   0  0  0  0  0  0  0  0  0  0  0  0
    4.9710    0.2753    1.1486 H   0  0  0  0  0  0  0  0  0  0  0  0
    4.9708   -1.2541    0.2670 H   0  0  0  0  0  0  0  0  0  0  0  0
    4.7444   -2.5003    2.4291 H   0  0  0  0  0  0  0  0  0  0  0  0
    4.7455   -0.9709    3.3103 H   0  0  0  0  0  0  0  0  0  0  0  0
    7.0193   -0.4472    2.4005 H   0  0  0  0  0  0  0  0  0  0  0  0
    7.0185   -1.9758    1.5176 H   0  0  0  0  0  0  0  0  0  0  0  0
    6.8012   -3.2243    3.6789 H   0  0  0  0  0  0  0  0  0  0  0  0
    6.8013   -1.6952    4.5610 H   0  0  0  0  0  0  0  0  0  0  0  0
    9.0680   -1.1646    3.6486 H   0  0  0  0  0  0  0  0  0  0  0  0
    9.0709   -2.6961    2.7641 H   0  0  0  0  0  0  0  0  0  0  0  0
    8.8973   -3.9600    4.9190 H   0  0  0  0  0  0  0  0  0  0  0  0
    8.8506   -2.4350    5.8196 H   0  0  0  0  0  0  0  0  0  0  0  0
   11.2373   -3.5416    3.8046 H   0  0  0  0  0  0  0  0  0  0  0  0
  1  2  1  0  0  0  0
  1 11  1  0  0  0  0
  1 12  1  0  0  0  0
  1 13  1  0  0  0  0
  2  3  1  0  0  0  0
  2 14  1  0  0  0  0
  2 15  1  0  0  0  0
  3  4  1  0  0  0  0
  3 16  1  0  0  0  0
  3 17  1  0  0  0  0
  4  5  1  0  0  0  0
  4 18  1  0  0  0  0
  4 19  1  0  0  0  0
  5  6  1  0  0  0  0
  5 20  1  0  0  0  0
  5 21  1  0  0  0  0
  6  7  1  0  0  0  0
  6 22  1  0  0  0  0
  6 23  1  0  0  0  0
  7  8  1  0  0  0  0
  7 24  1  0  0  0  0
  7 25  1  0  0  0  0
  8  9  1  0  0  0  0
  8 26  1  0  0  0  0
  8 27  1  0  0  0  0
  9 10  1  0  0  0  0
  9 28  1  0  0  0  0
  9 29  1  0  0  0  0
 10 30  1  0  0  0  0
M  END
$$$$
