
 OpenBabel07202215583D

 21 21  0  0  0  0  0  0  0  0999 V2000
    1.0500    0.0445   -0.0418 C   0  0  0  0  0  0  0  0  0  0  0  0
    2.4756   -0.0033   -0.0238 O   0  0  0  0  0  0  0  0  0  0  0  0
    3.1155    1.2117   -0.0320 C   0  0  0  0  0  0  0  0  0  0  0  0
    4.5111    1.1710   -0.0552 C   0  0  0  0  0  0  0  0  0  0  0  0
    5.2681    2.3369   -0.0792 C   0  0  0  0  0  0  0  0  0  0  0  0
    4.6215    3.5744   -0.0835 C   0  0  0  0  0  0  0  0  0  0  0  0
    3.2212    3.6504   -0.0522 C   0  0  0  0  0  0  0  0  0  0  0  0
    2.4799    2.4559   -0.0158 C   0  0  0  0  0  0  0  0  0  0  0  0
    2.5573    5.0066   -0.0438 C   0  0  0  0  0  0  0  0  0  0  0  0
    1.1366    4.9283   -0.0334 O   0  0  0  0  0  0  0  0  0  0  0  0
    5.1784   -0.0238   -0.0491 O   0  0  0  0  0  0  0  0  0  0  0  0
    0.6732   -0.9819   -0.0520 H   0  0  0  0  0  0  0  0  0  0  0  0
    0.6818    0.5421   -0.9467 H   0  0  0  0  0  0  0  0  0  0  0  0
    0.6620    0.5316    0.8598 H   0  0  0  0  0  0  0  0  0  0  0  0
    6.3517    2.2806   -0.0919 H   0  0  0  0  0  0  0  0  0  0  0  0
    5.2223    4.4821   -0.1021 H   0  0  0  0  0  0  0  0  0  0  0  0
    1.4002    2.5183    0.0392 H   0  0  0  0  0  0  0  0  0  0  0  0
    2.8520    5.5703   -0.9352 H   0  0  0  0  0  0  0  0  0  0  0  0
    2.8659    5.5638    0.8461 H   0  0  0  0  0  0  0  0  0  0  0  0
    0.8768    4.4594   -0.8440 H   0  0  0  0  0  0  0  0  0  0  0  0
    4.4817   -0.7068   -0.0114 H   0  0  0  0  0  0  0  0  0  0  0  0
  1  2  1  0  0  0  0
  1 12  1  0  0  0  0
  1 13  1  0  0  0  0
  1 14  1  0  0  0  0
  2  3  1  0  0  0  0
  3  4  2  0  0  0  0
  3  8  1  0  0  0  0
  4  5  1  0  0  0  0
  4 11  1  0  0  0  0
  5  6  2  0  0  0  0
  5 15  1  0  0  0  0
  6  7  1  0  0  0  0
  6 16  1  0  0  0  0
  7  8  2  0  0  0  0
  7  9  1  0  0  0  0
  8 17  1  0  0  0  0
  9 10  1  0  0  0  0
  9 18  1  0  0  0  0
  9 19  1  0  0  0  0
 10 20  1  0  0  0  0
 11 21  1  0  0  0  0
M  END
$$$$
