
 OpenBabel07222214443D

 29 29  0  0  0  0  0  0  0  0999 V2000
    0.9554    0.0779   -0.0255 C   0  0  0  0  0  0  0  0  0  0  0  0
    2.4661    0.0334   -0.0130 C   0  0  0  0  0  0  0  0  0  0  0  0
    3.0641    1.0714   -0.9611 C   0  0  0  0  0  0  0  0  0  0  0  0
    4.6215    1.1097   -0.9784 C   0  0  0  0  0  0  0  0  0  0  0  0
    5.1680    1.4142    0.4338 C   0  0  0  0  0  0  0  0  0  0  0  0
    5.1412   -0.2795   -1.3834 C   0  0  0  0  0  0  0  0  0  0  0  0
    5.0087   -1.3081   -0.7105 O   0  0  0  0  0  0  0  0  0  0  0  0
    5.0748    2.2512   -1.9165 C   0  0  0  0  0  0  0  0  0  0  0  0
    6.0186    2.1003   -2.9453 C   0  0  0  0  0  0  0  0  0  0  0  0
    6.4313    3.1924   -3.7124 C   0  0  0  0  0  0  0  0  0  0  0  0
    5.8609    4.4443   -3.5174 C   0  0  0  0  0  0  0  0  0  0  0  0
    4.9179    4.6225   -2.5159 C   0  0  0  0  0  0  0  0  0  0  0  0
    4.5486    3.5455   -1.7145 C   0  0  0  0  0  0  0  0  0  0  0  0
    0.5688   -0.6942    0.6450 H   0  0  0  0  0  0  0  0  0  0  0  0
    0.5769   -0.1125   -1.0336 H   0  0  0  0  0  0  0  0  0  0  0  0
    0.5912    1.0516    0.3137 H   0  0  0  0  0  0  0  0  0  0  0  0
    2.7661   -0.9737   -0.3048 H   0  0  0  0  0  0  0  0  0  0  0  0
    2.8093    0.2068    1.0112 H   0  0  0  0  0  0  0  0  0  0  0  0
    2.6585    2.0425   -0.6486 H   0  0  0  0  0  0  0  0  0  0  0  0
    2.6871    0.9072   -1.9802 H   0  0  0  0  0  0  0  0  0  0  0  0
    4.8915    0.6432    1.1599 H   0  0  0  0  0  0  0  0  0  0  0  0
    4.7911    2.3689    0.8197 H   0  0  0  0  0  0  0  0  0  0  0  0
    6.2623    1.4628    0.4337 H   0  0  0  0  0  0  0  0  0  0  0  0
    5.6538   -0.3784   -2.3439 H   0  0  0  0  0  0  0  0  0  0  0  0
    6.4789    1.1517   -3.1976 H   0  0  0  0  0  0  0  0  0  0  0  0
    7.2069    3.0581   -4.4622 H   0  0  0  0  0  0  0  0  0  0  0  0
    6.1547    5.2802   -4.1437 H   0  0  0  0  0  0  0  0  0  0  0  0
    4.4744    5.5983   -2.3408 H   0  0  0  0  0  0  0  0  0  0  0  0
    3.8352    3.7411   -0.9165 H   0  0  0  0  0  0  0  0  0  0  0  0
  1  2  1  0  0  0  0
  1 14  1  0  0  0  0
  1 15  1  0  0  0  0
  1 16  1  0  0  0  0
  2  3  1  0  0  0  0
  2 17  1  0  0  0  0
  2 18  1  0  0  0  0
  3  4  1  0  0  0  0
  3 19  1  0  0  0  0
  3 20  1  0  0  0  0
  4  5  1  0  0  0  0
  4  6  1  0  0  0  0
  4  8  1  0  0  0  0
  5 21  1  0  0  0  0
  5 22  1  0  0  0  0
  5 23  1  0  0  0  0
  6  7  2  0  0  0  0
  6 24  1  0  0  0  0
  8  9  1  0  0  0  0
  8 13  2  0  0  0  0
  9 10  2  0  0  0  0
  9 25  1  0  0  0  0
 10 11  1  0  0  0  0
 10 26  1  0  0  0  0
 11 12  2  0  0  0  0
 11 27  1  0  0  0  0
 12 13  1  0  0  0  0
 12 28  1  0  0  0  0
 13 29  1  0  0  0  0
M  END
$$$$
