
 OpenBabel07202215583D

 34 35  0  0  1  0  0  0  0  0999 V2000
    7.1315   -0.7867    0.9628 C   0  0  0  0  0  0  0  0  0  0  0  0
    6.3254   -2.0036    0.4967 C   0  0  0  0  0  0  0  0  0  0  0  0
    6.7366   -3.1177    0.7480 O   0  0  0  0  0  0  0  0  0  0  0  0
    5.2139   -1.8689   -0.2877 O   0  0  0  0  0  0  0  0  0  0  0  0
    4.6012   -0.7095   -0.9086 C   0  0  1  0  0  0  0  0  0  0  0  0
    4.8523    0.5330   -0.0848 C   0  0  0  0  0  0  0  0  0  0  0  0
    5.7950    1.3292   -1.0462 C   0  0  2  0  0  0  0  0  0  0  0  0
    4.7330    2.0397   -1.9187 C   0  0  0  0  0  0  0  0  0  0  0  0
    4.2561    0.8826   -2.8259 C   0  0  0  0  0  0  0  0  0  0  0  0
    5.1267   -0.3327   -2.3573 C   0  0  1  0  0  0  0  0  0  0  0  0
    6.4981    0.3395   -2.1073 C   0  0  0  0  0  0  0  0  0  0  0  0
    7.1469    1.1164   -3.2785 C   0  0  0  0  0  0  0  0  0  0  0  0
    7.6676   -0.6589   -1.8363 C   0  0  0  0  0  0  0  0  0  0  0  0
    5.1452   -1.4904   -3.3338 C   0  0  0  0  0  0  0  0  0  0  0  0
    8.1890   -1.0527    1.0257 H   0  0  0  0  0  0  0  0  0  0  0  0
    6.7955   -0.3372    1.8942 H   0  0  0  0  0  0  0  0  0  0  0  0
    7.1587    0.0184    0.2480 H   0  0  0  0  0  0  0  0  0  0  0  0
    3.5201   -0.9122   -0.9530 H   0  0  0  0  0  0  0  0  0  0  0  0
    5.1956    0.3022    0.9154 H   0  0  0  0  0  0  0  0  0  0  0  0
    3.9280    1.0766    0.1535 H   0  0  0  0  0  0  0  0  0  0  0  0
    6.4618    2.0229   -0.5293 H   0  0  0  0  0  0  0  0  0  0  0  0
    5.1547    2.8767   -2.4776 H   0  0  0  0  0  0  0  0  0  0  0  0
    3.9055    2.4527   -1.3269 H   0  0  0  0  0  0  0  0  0  0  0  0
    4.4276    1.1363   -3.8763 H   0  0  0  0  0  0  0  0  0  0  0  0
    3.1844    0.6936   -2.7028 H   0  0  0  0  0  0  0  0  0  0  0  0
    6.5089    1.8269   -3.7941 H   0  0  0  0  0  0  0  0  0  0  0  0
    7.5142    0.4217   -4.0462 H   0  0  0  0  0  0  0  0  0  0  0  0
    8.0205    1.6640   -2.9000 H   0  0  0  0  0  0  0  0  0  0  0  0
    7.4258   -1.5557   -1.2932 H   0  0  0  0  0  0  0  0  0  0  0  0
    8.5248   -0.1599   -1.3662 H   0  0  0  0  0  0  0  0  0  0  0  0
    8.0554   -1.1212   -2.7556 H   0  0  0  0  0  0  0  0  0  0  0  0
    4.1399   -1.8887   -3.4965 H   0  0  0  0  0  0  0  0  0  0  0  0
    5.7728   -2.3098   -2.9688 H   0  0  0  0  0  0  0  0  0  0  0  0
    5.5467   -1.1748   -4.3025 H   0  0  0  0  0  0  0  0  0  0  0  0
  1  2  1  0  0  0  0
  1 15  1  0  0  0  0
  1 16  1  0  0  0  0
  1 17  1  0  0  0  0
  2  3  2  0  0  0  0
  2  4  1  0  0  0  0
  5  6  1  0  0  0  0
  5 10  1  0  0  0  0
  5  4  1  0  0  0  0
  5 18  1  6  0  0  0
  6  7  1  0  0  0  0
  6 19  1  0  0  0  0
  6 20  1  0  0  0  0
  7  8  1  0  0  0  0
  7 11  1  0  0  0  0
  7 21  1  1  0  0  0
  8  9  1  0  0  0  0
  8 22  1  0  0  0  0
  8 23  1  0  0  0  0
  9 10  1  0  0  0  0
  9 24  1  0  0  0  0
  9 25  1  0  0  0  0
 10 11  1  0  0  0  0
 10 14  1  6  0  0  0
 11 12  1  0  0  0  0
 11 13  1  0  0  0  0
 12 26  1  0  0  0  0
 12 27  1  0  0  0  0
 12 28  1  0  0  0  0
 13 29  1  0  0  0  0
 13 30  1  0  0  0  0
 13 31  1  0  0  0  0
 14 32  1  0  0  0  0
 14 33  1  0  0  0  0
 14 34  1  0  0  0  0
M  END
$$$$
