
 OpenBabel07222214433D

 32 31  0  0  0  0  0  0  0  0999 V2000
    0.9682   -0.0162   -0.1047 C   0  0  0  0  0  0  0  0  0  0  0  0
    2.4848   -0.0225   -0.0994 C   0  0  0  0  0  0  0  0  0  0  0  0
    3.0107   -1.1179    0.8194 C   0  0  0  0  0  0  0  0  0  0  0  0
    4.5331   -1.1263    0.8264 C   0  0  0  0  0  0  0  0  0  0  0  0
    5.0569   -2.2214    1.7450 C   0  0  0  0  0  0  0  0  0  0  0  0
    6.5828   -2.2294    1.7517 C   0  0  0  0  0  0  0  0  0  0  0  0
    7.1000   -3.3265    2.6719 C   0  0  0  0  0  0  0  0  0  0  0  0
    8.6270   -3.3797    2.7165 C   0  0  0  0  0  0  0  0  0  0  0  0
    9.0756   -4.4876    3.6458 C   0  0  0  0  0  0  0  0  0  0  0  0
    8.3185   -5.2262    4.2653 O   0  0  0  0  0  0  0  0  0  0  0  0
   10.4349   -4.5577    3.7046 O   0  0  0  0  0  0  0  0  0  0  0  0
   10.9121   -5.5927    4.5727 C   0  0  0  0  0  0  0  0  0  0  0  0
    0.5943    0.7709   -0.7648 H   0  0  0  0  0  0  0  0  0  0  0  0
    0.5786    0.1635    0.9024 H   0  0  0  0  0  0  0  0  0  0  0  0
    0.5786   -0.9767   -0.4569 H   0  0  0  0  0  0  0  0  0  0  0  0
    2.8550    0.9541    0.2339 H   0  0  0  0  0  0  0  0  0  0  0  0
    2.8550   -0.1808   -1.1191 H   0  0  0  0  0  0  0  0  0  0  0  0
    2.6369   -2.0940    0.4862 H   0  0  0  0  0  0  0  0  0  0  0  0
    2.6369   -0.9597    1.8386 H   0  0  0  0  0  0  0  0  0  0  0  0
    4.9077   -0.1515    1.1616 H   0  0  0  0  0  0  0  0  0  0  0  0
    4.9077   -1.2867   -0.1918 H   0  0  0  0  0  0  0  0  0  0  0  0
    4.6794   -3.1961    1.4110 H   0  0  0  0  0  0  0  0  0  0  0  0
    4.6794   -2.0621    2.7630 H   0  0  0  0  0  0  0  0  0  0  0  0
    6.9542   -1.2537    2.0868 H   0  0  0  0  0  0  0  0  0  0  0  0
    6.9542   -2.3896    0.7326 H   0  0  0  0  0  0  0  0  0  0  0  0
    6.7091   -4.2956    2.3360 H   0  0  0  0  0  0  0  0  0  0  0  0
    6.7091   -3.1643    3.6847 H   0  0  0  0  0  0  0  0  0  0  0  0
    9.0202   -2.4233    3.0789 H   0  0  0  0  0  0  0  0  0  0  0  0
    9.0202   -3.5701    1.7116 H   0  0  0  0  0  0  0  0  0  0  0  0
   12.0055   -5.5796    4.5617 H   0  0  0  0  0  0  0  0  0  0  0  0
   10.5773   -6.5752    4.2226 H   0  0  0  0  0  0  0  0  0  0  0  0
   10.5773   -5.4189    5.6012 H   0  0  0  0  0  0  0  0  0  0  0  0
  1  2  1  0  0  0  0
  1 13  1  0  0  0  0
  1 14  1  0  0  0  0
  1 15  1  0  0  0  0
  2  3  1  0  0  0  0
  2 16  1  0  0  0  0
  2 17  1  0  0  0  0
  3  4  1  0  0  0  0
  3 18  1  0  0  0  0
  3 19  1  0  0  0  0
  4  5  1  0  0  0  0
  4 20  1  0  0  0  0
  4 21  1  0  0  0  0
  5  6  1  0  0  0  0
  5 22  1  0  0  0  0
  5 23  1  0  0  0  0
  6  7  1  0  0  0  0
  6 24  1  0  0  0  0
  6 25  1  0  0  0  0
  7  8  1  0  0  0  0
  7 26  1  0  0  0  0
  7 27  1  0  0  0  0
  8  9  1  0  0  0  0
  8 28  1  0  0  0  0
  8 29  1  0  0  0  0
  9 10  2  0  0  0  0
  9 11  1  0  0  0  0
 11 12  1  0  0  0  0
 12 30  1  0  0  0  0
 12 31  1  0  0  0  0
 12 32  1  0  0  0  0
M  END
$$$$
