
 OpenBabel07222214433D

 18 17  0  0  0  0  0  0  0  0999 V2000
    0.9019   -0.0440   -0.0078 C   0  0  0  0  0  0  0  0  0  0  0  0
    2.4191   -0.0429    0.0012 C   0  0  0  0  0  0  0  0  0  0  0  0
    2.9815    0.1301    1.4117 C   0  0  0  0  0  0  0  0  0  0  0  0
    4.4946    0.1268    1.3851 C   0  0  0  0  0  0  0  0  0  0  0  0
    5.1646    0.0019    0.3661 O   0  0  0  0  0  0  0  0  0  0  0  0
    5.2043    0.2909    2.7229 C   0  0  0  0  0  0  0  0  0  0  0  0
    4.5413    0.4164    3.7467 O   0  0  0  0  0  0  0  0  0  0  0  0
    6.7078    0.2896    2.7126 C   0  0  0  0  0  0  0  0  0  0  0  0
    0.5311   -0.1693   -1.0301 H   0  0  0  0  0  0  0  0  0  0  0  0
    0.5086    0.8989    0.3843 H   0  0  0  0  0  0  0  0  0  0  0  0
    0.5086   -0.8642    0.6005 H   0  0  0  0  0  0  0  0  0  0  0  0
    2.7835    0.7644   -0.6460 H   0  0  0  0  0  0  0  0  0  0  0  0
    2.7835   -0.9826   -0.4318 H   0  0  0  0  0  0  0  0  0  0  0  0
    2.6376   -0.6895    2.0526 H   0  0  0  0  0  0  0  0  0  0  0  0
    2.6376    1.0802    1.8356 H   0  0  0  0  0  0  0  0  0  0  0  0
    7.1130    0.1662    1.7060 H   0  0  0  0  0  0  0  0  0  0  0  0
    7.0708   -0.5374    3.3281 H   0  0  0  0  0  0  0  0  0  0  0  0
    7.0708    1.2409    3.1101 H   0  0  0  0  0  0  0  0  0  0  0  0
  1  2  1  0  0  0  0
  1  9  1  0  0  0  0
  1 10  1  0  0  0  0
  1 11  1  0  0  0  0
  2  3  1  0  0  0  0
  2 12  1  0  0  0  0
  2 13  1  0  0  0  0
  3  4  1  0  0  0  0
  3 14  1  0  0  0  0
  3 15  1  0  0  0  0
  4  5  2  0  0  0  0
  4  6  1  0  0  0  0
  6  7  2  0  0  0  0
  6  8  1  0  0  0  0
  8 16  1  0  0  0  0
  8 17  1  0  0  0  0
  8 18  1  0  0  0  0
M  END
$$$$
