
 OpenBabel07202215583D

 32 31  0  0  0  0  0  0  0  0999 V2000
    1.0427   -0.0523   -0.0449 O   0  0  0  0  0  0  0  0  0  0  0  0
    2.3891   -0.1112   -0.1228 C   0  0  0  0  0  0  0  0  0  0  0  0
    2.9531   -0.7669   -0.9891 O   0  0  0  0  0  0  0  0  0  0  0  0
    3.0998    0.6943    0.9413 C   0  0  0  0  0  0  0  0  0  0  0  0
    4.6125    0.5611    0.7654 C   0  0  0  0  0  0  0  0  0  0  0  0
    5.3868    1.3512    1.8092 C   0  0  0  0  0  0  0  0  0  0  0  0
    6.8865    1.1841    1.5885 C   0  0  0  0  0  0  0  0  0  0  0  0
    7.6639    1.9718    2.6291 C   0  0  0  0  0  0  0  0  0  0  0  0
    9.1627    1.8088    2.4137 C   0  0  0  0  0  0  0  0  0  0  0  0
    9.9121    2.6068    3.4680 C   0  0  0  0  0  0  0  0  0  0  0  0
   11.4175    2.4850    3.3072 C   0  0  0  0  0  0  0  0  0  0  0  0
   12.2378    3.2518    4.3201 C   0  0  0  0  0  0  0  0  0  0  0  0
   11.5680    3.9573    5.2522 O   0  0  0  0  0  0  0  0  0  0  0  0
   13.4627    3.2376    4.3014 O   0  0  0  0  0  0  0  0  0  0  0  0
    0.6880    0.4956    0.6788 H   0  0  0  0  0  0  0  0  0  0  0  0
    2.8081    0.3228    1.9300 H   0  0  0  0  0  0  0  0  0  0  0  0
    2.8081    1.7466    0.8522 H   0  0  0  0  0  0  0  0  0  0  0  0
    4.8988    0.9064   -0.2366 H   0  0  0  0  0  0  0  0  0  0  0  0
    4.8988   -0.4970    0.8257 H   0  0  0  0  0  0  0  0  0  0  0  0
    5.1211    1.0039    2.8147 H   0  0  0  0  0  0  0  0  0  0  0  0
    5.1211    2.4132    1.7479 H   0  0  0  0  0  0  0  0  0  0  0  0
    7.1593    1.5310    0.5841 H   0  0  0  0  0  0  0  0  0  0  0  0
    7.1593    0.1233    1.6496 H   0  0  0  0  0  0  0  0  0  0  0  0
    7.3935    1.6262    3.6348 H   0  0  0  0  0  0  0  0  0  0  0  0
    7.3935    3.0335    2.5696 H   0  0  0  0  0  0  0  0  0  0  0  0
    9.4371    2.1586    1.4113 H   0  0  0  0  0  0  0  0  0  0  0  0
    9.4371    0.7490    2.4783 H   0  0  0  0  0  0  0  0  0  0  0  0
    9.6176    2.2497    4.4627 H   0  0  0  0  0  0  0  0  0  0  0  0
    9.6176    3.6611    3.3944 H   0  0  0  0  0  0  0  0  0  0  0  0
   11.7035    2.8447    2.3113 H   0  0  0  0  0  0  0  0  0  0  0  0
   11.7035    1.4289    3.3829 H   0  0  0  0  0  0  0  0  0  0  0  0
   10.5956    3.9362    5.2243 H   0  0  0  0  0  0  0  0  0  0  0  0
  1  2  1  0  0  0  0
  1 15  1  0  0  0  0
  2  3  2  0  0  0  0
  2  4  1  0  0  0  0
  4  5  1  0  0  0  0
  4 16  1  0  0  0  0
  4 17  1  0  0  0  0
  5  6  1  0  0  0  0
  5 18  1  0  0  0  0
  5 19  1  0  0  0  0
  6  7  1  0  0  0  0
  6 20  1  0  0  0  0
  6 21  1  0  0  0  0
  7  8  1  0  0  0  0
  7 22  1  0  0  0  0
  7 23  1  0  0  0  0
  8  9  1  0  0  0  0
  8 24  1  0  0  0  0
  8 25  1  0  0  0  0
  9 10  1  0  0  0  0
  9 26  1  0  0  0  0
  9 27  1  0  0  0  0
 10 11  1  0  0  0  0
 10 28  1  0  0  0  0
 10 29  1  0  0  0  0
 11 12  1  0  0  0  0
 11 30  1  0  0  0  0
 11 31  1  0  0  0  0
 12 13  1  0  0  0  0
 12 14  2  0  0  0  0
 13 32  1  0  0  0  0
M  END
$$$$
