
 OpenBabel07222214433D

 23 23  0  0  0  0  0  0  0  0999 V2000
    0.9286    0.0277    0.0766 C   0  0  0  0  0  0  0  0  0  0  0  0
    2.4663    0.0508    0.0327 C   0  0  0  0  0  0  0  0  0  0  0  0
    2.9818    0.7412   -1.2400 C   0  0  0  0  0  0  0  0  0  0  0  0
    2.5321    0.0632   -2.5028 C   0  0  0  0  0  0  0  0  0  0  0  0
    2.7911    0.5129   -3.6208 O   0  0  0  0  0  0  0  0  0  0  0  0
    2.9362    0.7618    1.2952 C   0  0  0  0  0  0  0  0  0  0  0  0
    3.2704    0.0337    2.4457 C   0  0  0  0  0  0  0  0  0  0  0  0
    3.4352    0.6931    3.6672 C   0  0  0  0  0  0  0  0  0  0  0  0
    3.3523    2.0839    3.7351 C   0  0  0  0  0  0  0  0  0  0  0  0
    3.0890    2.8202    2.5873 C   0  0  0  0  0  0  0  0  0  0  0  0
    2.8764    2.1630    1.3812 C   0  0  0  0  0  0  0  0  0  0  0  0
    0.4992   -0.4933   -0.7827 H   0  0  0  0  0  0  0  0  0  0  0  0
    0.5192    1.0448    0.0843 H   0  0  0  0  0  0  0  0  0  0  0  0
    0.5666   -0.4806    0.9777 H   0  0  0  0  0  0  0  0  0  0  0  0
    2.8313   -0.9862    0.0381 H   0  0  0  0  0  0  0  0  0  0  0  0
    4.0779    0.7645   -1.2351 H   0  0  0  0  0  0  0  0  0  0  0  0
    2.6165    1.7708   -1.3081 H   0  0  0  0  0  0  0  0  0  0  0  0
    1.9376   -0.8560   -2.3993 H   0  0  0  0  0  0  0  0  0  0  0  0
    3.3635   -1.0500    2.4150 H   0  0  0  0  0  0  0  0  0  0  0  0
    3.5979    0.1208    4.5769 H   0  0  0  0  0  0  0  0  0  0  0  0
    3.4844    2.5964    4.6832 H   0  0  0  0  0  0  0  0  0  0  0  0
    3.0054    3.9024    2.6269 H   0  0  0  0  0  0  0  0  0  0  0  0
    2.6151    2.7682    0.5183 H   0  0  0  0  0  0  0  0  0  0  0  0
  1  2  1  0  0  0  0
  1 12  1  0  0  0  0
  1 13  1  0  0  0  0
  1 14  1  0  0  0  0
  2  3  1  0  0  0  0
  2  6  1  0  0  0  0
  2 15  1  0  0  0  0
  3  4  1  0  0  0  0
  3 16  1  0  0  0  0
  3 17  1  0  0  0  0
  4  5  2  0  0  0  0
  4 18  1  0  0  0  0
  6  7  1  0  0  0  0
  6 11  2  0  0  0  0
  7  8  2  0  0  0  0
  7 19  1  0  0  0  0
  8  9  1  0  0  0  0
  8 20  1  0  0  0  0
  9 10  2  0  0  0  0
  9 21  1  0  0  0  0
 10 11  1  0  0  0  0
 10 22  1  0  0  0  0
 11 23  1  0  0  0  0
M  END
$$$$
