
 OpenBabel07202215583D

 31 30  0  0  1  0  0  0  0  0999 V2000
    1.0155   -0.1193   -0.0330 C   0  0  0  0  0  0  0  0  0  0  0  0
    2.5428   -0.0567   -0.0248 C   0  0  1  0  0  0  0  0  0  0  0  0
    3.0433    1.3806    0.2076 C   0  0  0  0  0  0  0  0  0  0  0  0
    2.5740    2.3574   -0.8585 C   0  0  0  0  0  0  0  0  0  0  0  0
    3.0991    3.6473   -0.5802 O   0  0  0  0  0  0  0  0  0  0  0  0
    3.0685   -1.0192    1.0552 C   0  0  0  0  0  0  0  0  0  0  0  0
    4.5894   -1.0616    1.0720 C   0  0  0  0  0  0  0  0  0  0  0  0
    5.1393   -1.9843    2.1082 C   0  0  0  0  0  0  0  0  0  0  0  0
    6.4651   -2.1356    2.3055 C   0  0  0  0  0  0  0  0  0  0  0  0
    7.5020   -1.4084    1.4897 C   0  0  0  0  0  0  0  0  0  0  0  0
    6.9800   -3.0540    3.3721 C   0  0  0  0  0  0  0  0  0  0  0  0
    0.5914    0.4944   -0.8316 H   0  0  0  0  0  0  0  0  0  0  0  0
    0.6102    0.2316    0.9220 H   0  0  0  0  0  0  0  0  0  0  0  0
    0.6682   -1.1435   -0.1991 H   0  0  0  0  0  0  0  0  0  0  0  0
    2.9086   -0.4001   -1.0021 H   0  0  0  0  0  0  0  0  0  0  0  0
    4.1387    1.4213    0.2082 H   0  0  0  0  0  0  0  0  0  0  0  0
    2.7389    1.7300    1.2027 H   0  0  0  0  0  0  0  0  0  0  0  0
    1.4861    2.4402   -0.8890 H   0  0  0  0  0  0  0  0  0  0  0  0
    2.9313    2.0432   -1.8441 H   0  0  0  0  0  0  0  0  0  0  0  0
    2.7512    3.9146    0.2881 H   0  0  0  0  0  0  0  0  0  0  0  0
    2.6824   -2.0294    0.8643 H   0  0  0  0  0  0  0  0  0  0  0  0
    2.6937   -0.7168    2.0414 H   0  0  0  0  0  0  0  0  0  0  0  0
    4.9805   -0.0646    1.2958 H   0  0  0  0  0  0  0  0  0  0  0  0
    4.9460   -1.3641    0.0798 H   0  0  0  0  0  0  0  0  0  0  0  0
    4.4322   -2.5236    2.7329 H   0  0  0  0  0  0  0  0  0  0  0  0
    7.0719   -0.7448    0.7324 H   0  0  0  0  0  0  0  0  0  0  0  0
    8.1341   -2.1234    0.9557 H   0  0  0  0  0  0  0  0  0  0  0  0
    8.1260   -0.7828    2.1344 H   0  0  0  0  0  0  0  0  0  0  0  0
    6.1660   -3.5353    3.9256 H   0  0  0  0  0  0  0  0  0  0  0  0
    7.5867   -2.4977    4.0933 H   0  0  0  0  0  0  0  0  0  0  0  0
    7.5915   -3.8442    2.9266 H   0  0  0  0  0  0  0  0  0  0  0  0
  1  2  1  0  0  0  0
  1 12  1  0  0  0  0
  1 13  1  0  0  0  0
  1 14  1  0  0  0  0
  2  3  1  0  0  0  0
  2  6  1  0  0  0  0
  2 15  1  6  0  0  0
  3  4  1  0  0  0  0
  3 16  1  0  0  0  0
  3 17  1  0  0  0  0
  4  5  1  0  0  0  0
  4 18  1  0  0  0  0
  4 19  1  0  0  0  0
  5 20  1  0  0  0  0
  6  7  1  0  0  0  0
  6 21  1  0  0  0  0
  6 22  1  0  0  0  0
  7  8  1  0  0  0  0
  7 23  1  0  0  0  0
  7 24  1  0  0  0  0
  8  9  2  0  0  0  0
  8 25  1  0  0  0  0
  9 10  1  0  0  0  0
  9 11  1  0  0  0  0
 10 26  1  0  0  0  0
 10 27  1  0  0  0  0
 10 28  1  0  0  0  0
 11 29  1  0  0  0  0
 11 30  1  0  0  0  0
 11 31  1  0  0  0  0
M  END
$$$$
