
 OpenBabel07222214433D

 29 28  0  0  0  0  0  0  0  0999 V2000
    1.0585    0.0957    0.0181 C   0  0  0  0  0  0  0  0  0  0  0  0
    2.5549    0.0866    0.0184 C   0  0  0  0  0  0  0  0  0  0  0  0
    3.2754    1.4094    0.0334 C   0  0  0  0  0  0  0  0  0  0  0  0
    3.2247   -1.0852    0.0045 C   0  0  0  0  0  0  0  0  0  0  0  0
    4.7177   -1.1296    0.0037 C   0  0  0  0  0  0  0  0  0  0  0  0
    5.3292   -2.5278   -0.0117 C   0  0  0  0  0  0  0  0  0  0  0  0
    6.8481   -2.5206   -0.0060 C   0  0  0  0  0  0  0  0  0  0  0  0
    7.6123   -1.2157    0.0057 C   0  0  0  0  0  0  0  0  0  0  0  0
    7.5277   -3.6867   -0.0237 C   0  0  0  0  0  0  0  0  0  0  0  0
    9.0226   -3.7551   -0.0303 C   0  0  0  0  0  0  0  0  0  0  0  0
    9.4372   -5.1083   -0.0586 O   0  0  0  0  0  0  0  0  0  0  0  0
    0.6597    1.1141    0.0299 H   0  0  0  0  0  0  0  0  0  0  0  0
    0.6752   -0.4223    0.9032 H   0  0  0  0  0  0  0  0  0  0  0  0
    0.6756   -0.4016   -0.8790 H   0  0  0  0  0  0  0  0  0  0  0  0
    2.5851    2.2567    0.0432 H   0  0  0  0  0  0  0  0  0  0  0  0
    3.9083    1.5148   -0.8552 H   0  0  0  0  0  0  0  0  0  0  0  0
    3.9085    1.4944    0.9242 H   0  0  0  0  0  0  0  0  0  0  0  0
    2.6823   -2.0263   -0.0071 H   0  0  0  0  0  0  0  0  0  0  0  0
    5.0679   -0.6088    0.9044 H   0  0  0  0  0  0  0  0  0  0  0  0
    5.0682   -0.5886   -0.8849 H   0  0  0  0  0  0  0  0  0  0  0  0
    4.9729   -3.0626   -0.9025 H   0  0  0  0  0  0  0  0  0  0  0  0
    4.9683   -3.0838    0.8641 H   0  0  0  0  0  0  0  0  0  0  0  0
    6.9938   -0.3187    0.0150 H   0  0  0  0  0  0  0  0  0  0  0  0
    8.2382   -1.1379   -0.8891 H   0  0  0  0  0  0  0  0  0  0  0  0
    8.2414   -1.1558    0.8993 H   0  0  0  0  0  0  0  0  0  0  0  0
    6.9820   -4.6274   -0.0515 H   0  0  0  0  0  0  0  0  0  0  0  0
    9.4388   -3.2831    0.8660 H   0  0  0  0  0  0  0  0  0  0  0  0
    9.4252   -3.2592   -0.9186 H   0  0  0  0  0  0  0  0  0  0  0  0
    9.1389   -5.5085    0.7745 H   0  0  0  0  0  0  0  0  0  0  0  0
  1  2  1  0  0  0  0
  1 12  1  0  0  0  0
  1 13  1  0  0  0  0
  1 14  1  0  0  0  0
  2  3  1  0  0  0  0
  2  4  2  0  0  0  0
  3 15  1  0  0  0  0
  3 16  1  0  0  0  0
  3 17  1  0  0  0  0
  4  5  1  0  0  0  0
  4 18  1  0  0  0  0
  5  6  1  0  0  0  0
  5 19  1  0  0  0  0
  5 20  1  0  0  0  0
  6  7  1  0  0  0  0
  6 21  1  0  0  0  0
  6 22  1  0  0  0  0
  7  8  1  0  0  0  0
  7  9  2  0  0  0  0
  8 23  1  0  0  0  0
  8 24  1  0  0  0  0
  8 25  1  0  0  0  0
  9 10  1  0  0  0  0
  9 26  1  0  0  0  0
 10 11  1  0  0  0  0
 10 27  1  0  0  0  0
 10 28  1  0  0  0  0
 11 29  1  0  0  0  0
M  END
$$$$
