
 OpenBabel07202215583D

 29 28  0  0  0  0  0  0  0  0999 V2000
    0.9043   -0.0310   -0.0072 C   0  0  0  0  0  0  0  0  0  0  0  0
    2.3998   -0.0297   -0.0095 C   0  0  0  0  0  0  0  0  0  0  0  0
    3.1204   -0.4008    1.2588 C   0  0  0  0  0  0  0  0  0  0  0  0
    3.0754    0.2977   -1.1299 C   0  0  0  0  0  0  0  0  0  0  0  0
    4.5691    0.3065   -1.1596 C   0  0  0  0  0  0  0  0  0  0  0  0
    5.1593    0.7012   -2.5029 C   0  0  0  0  0  0  0  0  0  0  0  0
    6.6766    0.7164   -2.5424 C   0  0  0  0  0  0  0  0  0  0  0  0
    7.4849    0.3532   -1.3197 C   0  0  0  0  0  0  0  0  0  0  0  0
    7.3122    1.0464   -3.6861 C   0  0  0  0  0  0  0  0  0  0  0  0
    6.6041    1.4111   -4.9535 C   0  0  0  0  0  0  0  0  0  0  0  0
    7.5593    1.6931   -5.9611 O   0  0  0  0  0  0  0  0  0  0  0  0
    0.5030   -0.3163    0.9691 H   0  0  0  0  0  0  0  0  0  0  0  0
    0.5233   -0.7434   -0.7461 H   0  0  0  0  0  0  0  0  0  0  0  0
    0.5229    0.9671   -0.2463 H   0  0  0  0  0  0  0  0  0  0  0  0
    2.4307   -0.6385    2.0718 H   0  0  0  0  0  0  0  0  0  0  0  0
    3.7541    0.4268    1.5979 H   0  0  0  0  0  0  0  0  0  0  0  0
    3.7539   -1.2808    1.0985 H   0  0  0  0  0  0  0  0  0  0  0  0
    2.5371    0.5615   -2.0365 H   0  0  0  0  0  0  0  0  0  0  0  0
    4.9223   -0.7009   -0.9062 H   0  0  0  0  0  0  0  0  0  0  0  0
    4.9221    1.0174   -0.4022 H   0  0  0  0  0  0  0  0  0  0  0  0
    4.7857    1.6990   -2.7696 H   0  0  0  0  0  0  0  0  0  0  0  0
    4.7896    0.0013   -3.2648 H   0  0  0  0  0  0  0  0  0  0  0  0
    6.8847    0.0965   -0.4443 H   0  0  0  0  0  0  0  0  0  0  0  0
    8.1155    1.1942   -1.0152 H   0  0  0  0  0  0  0  0  0  0  0  0
    8.1126   -0.5205   -1.5205 H   0  0  0  0  0  0  0  0  0  0  0  0
    8.3994    1.0352   -3.7090 H   0  0  0  0  0  0  0  0  0  0  0  0
    5.9775    2.2982   -4.8140 H   0  0  0  0  0  0  0  0  0  0  0  0
    5.9815    0.5817   -5.3020 H   0  0  0  0  0  0  0  0  0  0  0  0
    8.0522    2.4765   -5.6666 H   0  0  0  0  0  0  0  0  0  0  0  0
  1  2  1  0  0  0  0
  1 12  1  0  0  0  0
  1 13  1  0  0  0  0
  1 14  1  0  0  0  0
  2  3  1  0  0  0  0
  2  4  2  0  0  0  0
  3 15  1  0  0  0  0
  3 16  1  0  0  0  0
  3 17  1  0  0  0  0
  4  5  1  0  0  0  0
  4 18  1  0  0  0  0
  5  6  1  0  0  0  0
  5 19  1  0  0  0  0
  5 20  1  0  0  0  0
  6  7  1  0  0  0  0
  6 21  1  0  0  0  0
  6 22  1  0  0  0  0
  7  8  1  0  0  0  0
  7  9  2  0  0  0  0
  8 23  1  0  0  0  0
  8 24  1  0  0  0  0
  8 25  1  0  0  0  0
  9 10  1  0  0  0  0
  9 26  1  0  0  0  0
 10 11  1  0  0  0  0
 10 27  1  0  0  0  0
 10 28  1  0  0  0  0
 11 29  1  0  0  0  0
M  END
$$$$
