
 OpenBabel07122215493D

 23 23  0  0  0  0  0  0  0  0999 V2000
    1.0393    0.1177   -0.1134 C   0  0  0  0  0  0  0  0  0  0  0  0
    2.5681    0.0624   -0.0886 C   0  0  0  0  0  0  0  0  0  0  0  0
    3.0769   -1.2948   -0.5818 C   0  0  0  0  0  0  0  0  0  0  0  0
    2.6879   -2.4685    0.2902 C   0  0  0  0  0  0  0  0  0  0  0  0
    2.2890   -2.3146    1.6288 C   0  0  0  0  0  0  0  0  0  0  0  0
    2.1033   -3.4152    2.4551 C   0  0  0  0  0  0  0  0  0  0  0  0
    2.2697   -4.6936    1.9408 C   0  0  0  0  0  0  0  0  0  0  0  0
    2.6227   -4.8683    0.6027 C   0  0  0  0  0  0  0  0  0  0  0  0
    2.8296   -3.7624   -0.2214 C   0  0  0  0  0  0  0  0  0  0  0  0
    3.1405    1.1642   -0.9455 C   0  0  0  0  0  0  0  0  0  0  0  0
    4.3516    1.3462   -1.0918 O   0  0  0  0  0  0  0  0  0  0  0  0
    0.5790   -0.6697    0.4914 H   0  0  0  0  0  0  0  0  0  0  0  0
    0.6616   -0.0031   -1.1333 H   0  0  0  0  0  0  0  0  0  0  0  0
    0.6806    1.0718    0.2813 H   0  0  0  0  0  0  0  0  0  0  0  0
    2.9286    0.2653    0.9277 H   0  0  0  0  0  0  0  0  0  0  0  0
    4.1748   -1.2843   -0.6269 H   0  0  0  0  0  0  0  0  0  0  0  0
    2.7291   -1.4616   -1.6114 H   0  0  0  0  0  0  0  0  0  0  0  0
    2.1156   -1.3364    2.0678 H   0  0  0  0  0  0  0  0  0  0  0  0
    1.8540   -3.2609    3.5011 H   0  0  0  0  0  0  0  0  0  0  0  0
    2.1302   -5.5531    2.5881 H   0  0  0  0  0  0  0  0  0  0  0  0
    2.7671   -5.8691    0.2071 H   0  0  0  0  0  0  0  0  0  0  0  0
    3.1263   -3.9138   -1.2574 H   0  0  0  0  0  0  0  0  0  0  0  0
    2.4165    1.8325   -1.4353 H   0  0  0  0  0  0  0  0  0  0  0  0
  1  2  1  0  0  0  0
  1 12  1  0  0  0  0
  1 13  1  0  0  0  0
  1 14  1  0  0  0  0
  2  3  1  0  0  0  0
  2 10  1  0  0  0  0
  2 15  1  0  0  0  0
  3  4  1  0  0  0  0
  3 16  1  0  0  0  0
  3 17  1  0  0  0  0
  4  5  1  0  0  0  0
  4  9  2  0  0  0  0
  5  6  2  0  0  0  0
  5 18  1  0  0  0  0
  6  7  1  0  0  0  0
  6 19  1  0  0  0  0
  7  8  2  0  0  0  0
  7 20  1  0  0  0  0
  8  9  1  0  0  0  0
  8 21  1  0  0  0  0
  9 22  1  0  0  0  0
 10 11  2  0  0  0  0
 10 23  1  0  0  0  0
M  END
$$$$
