
 OpenBabel07222214443D

 22 22  0  0  0  0  0  0  0  0999 V2000
    1.0398    0.0929   -0.0517 C   0  0  0  0  0  0  0  0  0  0  0  0
    2.5712    0.0307   -0.0517 C   0  0  0  0  0  0  0  0  0  0  0  0
    3.1001   -0.2382    1.3599 C   0  0  0  0  0  0  0  0  0  0  0  0
    3.0281   -1.0258   -1.0415 C   0  0  0  0  0  0  0  0  0  0  0  0
    2.7602   -2.3840   -0.8075 C   0  0  0  0  0  0  0  0  0  0  0  0
    3.0656   -3.3532   -1.7607 C   0  0  0  0  0  0  0  0  0  0  0  0
    3.6510   -2.9624   -2.9589 C   0  0  0  0  0  0  0  0  0  0  0  0
    3.9584   -1.6303   -3.2004 C   0  0  0  0  0  0  0  0  0  0  0  0
    3.6507   -0.6586   -2.2445 C   0  0  0  0  0  0  0  0  0  0  0  0
    3.9277   -3.8720   -3.9364 O   0  0  0  0  0  0  0  0  0  0  0  0
    0.6760    0.8613    0.6370 H   0  0  0  0  0  0  0  0  0  0  0  0
    0.5975   -0.8629    0.2526 H   0  0  0  0  0  0  0  0  0  0  0  0
    0.6587    0.3253   -1.0529 H   0  0  0  0  0  0  0  0  0  0  0  0
    2.9509    1.0124   -0.3651 H   0  0  0  0  0  0  0  0  0  0  0  0
    2.7516   -1.1988    1.7539 H   0  0  0  0  0  0  0  0  0  0  0  0
    2.7642    0.5384    2.0549 H   0  0  0  0  0  0  0  0  0  0  0  0
    4.1953   -0.2537    1.3697 H   0  0  0  0  0  0  0  0  0  0  0  0
    2.2783   -2.6968    0.1163 H   0  0  0  0  0  0  0  0  0  0  0  0
    2.8235   -4.3888   -1.5537 H   0  0  0  0  0  0  0  0  0  0  0  0
    4.4205   -1.3445   -4.1419 H   0  0  0  0  0  0  0  0  0  0  0  0
    3.8793    0.3824   -2.4582 H   0  0  0  0  0  0  0  0  0  0  0  0
    3.6142   -4.7419   -3.6419 H   0  0  0  0  0  0  0  0  0  0  0  0
  1  2  1  0  0  0  0
  1 11  1  0  0  0  0
  1 12  1  0  0  0  0
  1 13  1  0  0  0  0
  2  3  1  0  0  0  0
  2  4  1  0  0  0  0
  2 14  1  0  0  0  0
  3 15  1  0  0  0  0
  3 16  1  0  0  0  0
  3 17  1  0  0  0  0
  4  5  2  0  0  0  0
  4  9  1  0  0  0  0
  5  6  1  0  0  0  0
  5 18  1  0  0  0  0
  6  7  2  0  0  0  0
  6 19  1  0  0  0  0
  7  8  1  0  0  0  0
  7 10  1  0  0  0  0
  8  9  2  0  0  0  0
  8 20  1  0  0  0  0
  9 21  1  0  0  0  0
 10 22  1  0  0  0  0
M  END
$$$$
