
 OpenBabel07122215493D

 12 11  0  0  0  0  0  0  0  0999 V2000
    1.1052    0.0693   -0.0078 C   0  0  0  0  0  0  0  0  0  0  0  0
    2.6051    0.0445    0.0068 C   0  0  0  0  0  0  0  0  0  0  0  0
    3.2291   -0.8659    0.5413 O   0  0  0  0  0  0  0  0  0  0  0  0
    3.3670    1.1950   -0.6687 C   0  0  0  0  0  0  0  0  0  0  0  0
    2.5983    2.3083   -1.3224 C   0  0  0  0  0  0  0  0  0  0  0  0
    4.5943    1.1898   -0.6657 O   0  0  0  0  0  0  0  0  0  0  0  0
    0.7261   -0.8162    0.5121 H   0  0  0  0  0  0  0  0  0  0  0  0
    0.7372    0.0403   -1.0361 H   0  0  0  0  0  0  0  0  0  0  0  0
    0.7372    0.9531    0.5186 H   0  0  0  0  0  0  0  0  0  0  0  0
    1.5184    2.1902   -1.2531 H   0  0  0  0  0  0  0  0  0  0  0  0
    2.8667    2.3470   -2.3819 H   0  0  0  0  0  0  0  0  0  0  0  0
    2.8667    3.2524   -0.8400 H   0  0  0  0  0  0  0  0  0  0  0  0
  1  2  1  0  0  0  0
  1  7  1  0  0  0  0
  1  8  1  0  0  0  0
  1  9  1  0  0  0  0
  2  3  2  0  0  0  0
  2  4  1  0  0  0  0
  4  5  1  0  0  0  0
  4  6  2  0  0  0  0
  5 10  1  0  0  0  0
  5 11  1  0  0  0  0
  5 12  1  0  0  0  0
M  END
$$$$
