
 OpenBabel07222214433D

 18 17  0  0  0  0  0  0  0  0999 V2000
    0.9171    0.0114    0.0500 C   0  0  0  0  0  0  0  0  0  0  0  0
    2.4353   -0.0169    0.0035 C   0  0  0  0  0  0  0  0  0  0  0  0
    2.9289   -0.7607   -1.2187 C   0  0  0  0  0  0  0  0  0  0  0  0
    2.2044   -1.2749   -2.0635 O   0  0  0  0  0  0  0  0  0  0  0  0
    4.4365   -0.8622   -1.3855 C   0  0  0  0  0  0  0  0  0  0  0  0
    5.1610   -0.3481   -0.5407 O   0  0  0  0  0  0  0  0  0  0  0  0
    4.9302   -1.6061   -2.6077 C   0  0  0  0  0  0  0  0  0  0  0  0
    6.4483   -1.6343   -2.6542 C   0  0  0  0  0  0  0  0  0  0  0  0
    0.5630    0.5495    0.9341 H   0  0  0  0  0  0  0  0  0  0  0  0
    0.5109   -1.0052    0.0808 H   0  0  0  0  0  0  0  0  0  0  0  0
    0.5109    0.5059   -0.8389 H   0  0  0  0  0  0  0  0  0  0  0  0
    2.8189   -0.5134    0.9014 H   0  0  0  0  0  0  0  0  0  0  0  0
    2.8189    1.0088   -0.0250 H   0  0  0  0  0  0  0  0  0  0  0  0
    4.5465   -1.1095   -3.5056 H   0  0  0  0  0  0  0  0  0  0  0  0
    4.5465   -2.6317   -2.5792 H   0  0  0  0  0  0  0  0  0  0  0  0
    6.8545   -0.6177   -2.6850 H   0  0  0  0  0  0  0  0  0  0  0  0
    6.8024   -2.1724   -3.5383 H   0  0  0  0  0  0  0  0  0  0  0  0
    6.8545   -2.1288   -1.7654 H   0  0  0  0  0  0  0  0  0  0  0  0
  1  2  1  0  0  0  0
  1  9  1  0  0  0  0
  1 10  1  0  0  0  0
  1 11  1  0  0  0  0
  2  3  1  0  0  0  0
  2 12  1  0  0  0  0
  2 13  1  0  0  0  0
  3  4  2  0  0  0  0
  3  5  1  0  0  0  0
  5  6  2  0  0  0  0
  5  7  1  0  0  0  0
  7  8  1  0  0  0  0
  7 14  1  0  0  0  0
  7 15  1  0  0  0  0
  8 16  1  0  0  0  0
  8 17  1  0  0  0  0
  8 18  1  0  0  0  0
M  END
$$$$
