
 OpenBabel07202215583D

 47 47  0  0  0  0  0  0  0  0999 V2000
    0.9993    0.0310   -0.2360 C   0  0  0  0  0  0  0  0  0  0  0  0
    2.5324    0.0344   -0.0941 C   0  0  0  0  0  0  0  0  0  0  0  0
    3.0768    1.1821    0.7976 C   0  0  0  0  0  0  0  0  0  0  0  0
    1.9798    2.1664    1.1680 C   0  0  0  0  0  0  0  0  0  0  0  0
    2.4571    3.4293    1.8505 C   0  0  0  0  0  0  0  0  0  0  0  0
    2.3778    3.3970    3.3733 C   0  0  0  0  0  0  0  0  0  0  0  0
    1.2498    2.5261    3.9445 C   0  0  0  0  0  0  0  0  0  0  0  0
    1.2790    2.5163    5.4647 C   0  0  0  0  0  0  0  0  0  0  0  0
    0.5787    1.2903    6.0758 C   0  0  0  0  0  0  0  0  0  0  0  0
    1.4133    0.0158    5.8663 C   0  0  0  0  0  0  0  0  0  0  0  0
    0.6565   -1.2193    5.3799 C   0  0  0  0  0  0  0  0  0  0  0  0
    1.6674   -2.3291    5.0264 C   0  0  0  0  0  0  0  0  0  0  0  0
    1.4699   -2.8396    3.6011 C   0  0  0  0  0  0  0  0  0  0  0  0
    2.5359   -2.2309    2.6985 C   0  0  0  0  0  0  0  0  0  0  0  0
    2.0957   -2.0741    1.2764 C   0  0  0  0  0  0  0  0  0  0  0  0
    1.0147   -2.5180    0.8704 O   0  0  0  0  0  0  0  0  0  0  0  0
    3.0589   -1.3338    0.3664 C   0  0  0  0  0  0  0  0  0  0  0  0
    0.6178    0.9442   -0.6976 H   0  0  0  0  0  0  0  0  0  0  0  0
    0.5170   -0.0640    0.7463 H   0  0  0  0  0  0  0  0  0  0  0  0
    0.6597   -0.7928   -0.8652 H   0  0  0  0  0  0  0  0  0  0  0  0
    2.9492    0.2129   -1.0945 H   0  0  0  0  0  0  0  0  0  0  0  0
    3.8721    1.7090    0.2533 H   0  0  0  0  0  0  0  0  0  0  0  0
    3.5497    0.7970    1.7112 H   0  0  0  0  0  0  0  0  0  0  0  0
    1.2495    1.6217    1.7624 H   0  0  0  0  0  0  0  0  0  0  0  0
    1.4310    2.4906    0.2829 H   0  0  0  0  0  0  0  0  0  0  0  0
    1.8222    4.2481    1.4899 H   0  0  0  0  0  0  0  0  0  0  0  0
    3.4764    3.6781    1.5308 H   0  0  0  0  0  0  0  0  0  0  0  0
    2.2643    4.4291    3.7277 H   0  0  0  0  0  0  0  0  0  0  0  0
    3.3387    3.0359    3.7568 H   0  0  0  0  0  0  0  0  0  0  0  0
    1.3808    1.4910    3.6224 H   0  0  0  0  0  0  0  0  0  0  0  0
    0.2756    2.8658    3.5678 H   0  0  0  0  0  0  0  0  0  0  0  0
    0.8277    3.4432    5.8299 H   0  0  0  0  0  0  0  0  0  0  0  0
    2.3248    2.5060    5.7920 H   0  0  0  0  0  0  0  0  0  0  0  0
   -0.4474    1.1908    5.7030 H   0  0  0  0  0  0  0  0  0  0  0  0
    0.5114    1.4730    7.1547 H   0  0  0  0  0  0  0  0  0  0  0  0
    1.9105   -0.2367    6.8094 H   0  0  0  0  0  0  0  0  0  0  0  0
    2.2126    0.2146    5.1444 H   0  0  0  0  0  0  0  0  0  0  0  0
    0.0358   -0.9519    4.5161 H   0  0  0  0  0  0  0  0  0  0  0  0
   -0.0222   -1.5932    6.1555 H   0  0  0  0  0  0  0  0  0  0  0  0
    1.5727   -3.1609    5.7313 H   0  0  0  0  0  0  0  0  0  0  0  0
    2.6993   -1.9688    5.1450 H   0  0  0  0  0  0  0  0  0  0  0  0
    0.4536   -2.6262    3.2492 H   0  0  0  0  0  0  0  0  0  0  0  0
    1.5718   -3.9311    3.5744 H   0  0  0  0  0  0  0  0  0  0  0  0
    3.4249   -2.8701    2.6908 H   0  0  0  0  0  0  0  0  0  0  0  0
    2.8189   -1.2318    3.0488 H   0  0  0  0  0  0  0  0  0  0  0  0
    3.2489   -1.9872   -0.4911 H   0  0  0  0  0  0  0  0  0  0  0  0
    4.0230   -1.2301    0.8818 H   0  0  0  0  0  0  0  0  0  0  0  0
  1  2  1  0  0  0  0
  1 18  1  0  0  0  0
  1 19  1  0  0  0  0
  1 20  1  0  0  0  0
  2  3  1  0  0  0  0
  2 17  1  0  0  0  0
  2 21  1  0  0  0  0
  3  4  1  0  0  0  0
  3 22  1  0  0  0  0
  3 23  1  0  0  0  0
  4  5  1  0  0  0  0
  4 24  1  0  0  0  0
  4 25  1  0  0  0  0
  5  6  1  0  0  0  0
  5 26  1  0  0  0  0
  5 27  1  0  0  0  0
  6  7  1  0  0  0  0
  6 28  1  0  0  0  0
  6 29  1  0  0  0  0
  7  8  1  0  0  0  0
  7 30  1  0  0  0  0
  7 31  1  0  0  0  0
  8  9  1  0  0  0  0
  8 32  1  0  0  0  0
  8 33  1  0  0  0  0
  9 10  1  0  0  0  0
  9 34  1  0  0  0  0
  9 35  1  0  0  0  0
 10 11  1  0  0  0  0
 10 36  1  0  0  0  0
 10 37  1  0  0  0  0
 11 12  1  0  0  0  0
 11 38  1  0  0  0  0
 11 39  1  0  0  0  0
 12 13  1  0  0  0  0
 12 40  1  0  0  0  0
 12 41  1  0  0  0  0
 13 14  1  0  0  0  0
 13 42  1  0  0  0  0
 13 43  1  0  0  0  0
 14 15  1  0  0  0  0
 14 44  1  0  0  0  0
 14 45  1  0  0  0  0
 15 16  2  0  0  0  0
 15 17  1  0  0  0  0
 17 46  1  0  0  0  0
 17 47  1  0  0  0  0
M  END
$$$$
