
 OpenBabel07202215583D

 17 17  0  0  0  0  0  0  0  0999 V2000
    1.0562   -0.0555    0.0155 O   0  0  0  0  0  0  0  0  0  0  0  0
    2.2879   -0.0425    0.0257 C   0  0  0  0  0  0  0  0  0  0  0  0
    3.0847    0.4224    1.2114 C   0  0  0  0  0  0  0  0  0  0  0  0
    4.5738    0.3365    0.9971 C   0  0  0  0  0  0  0  0  0  0  0  0
    5.2150   -0.9085    0.9217 C   0  0  0  0  0  0  0  0  0  0  0  0
    6.6063   -0.9790    0.8491 C   0  0  0  0  0  0  0  0  0  0  0  0
    7.3616    0.1898    0.7748 C   0  0  0  0  0  0  0  0  0  0  0  0
    6.7300    1.4313    0.8060 C   0  0  0  0  0  0  0  0  0  0  0  0
    5.3425    1.5055    0.9235 C   0  0  0  0  0  0  0  0  0  0  0  0
    2.8558   -0.3824   -0.8553 H   0  0  0  0  0  0  0  0  0  0  0  0
    2.8173   -0.1874    2.0819 H   0  0  0  0  0  0  0  0  0  0  0  0
    2.7931    1.4565    1.4280 H   0  0  0  0  0  0  0  0  0  0  0  0
    4.6399   -1.8323    0.9379 H   0  0  0  0  0  0  0  0  0  0  0  0
    7.1032   -1.9457    0.8670 H   0  0  0  0  0  0  0  0  0  0  0  0
    8.4439    0.1329    0.6949 H   0  0  0  0  0  0  0  0  0  0  0  0
    7.3193    2.3435    0.7609 H   0  0  0  0  0  0  0  0  0  0  0  0
    4.8677    2.4833    0.9721 H   0  0  0  0  0  0  0  0  0  0  0  0
  1  2  2  0  0  0  0
  2  3  1  0  0  0  0
  2 10  1  0  0  0  0
  3  4  1  0  0  0  0
  3 11  1  0  0  0  0
  3 12  1  0  0  0  0
  4  5  1  0  0  0  0
  4  9  2  0  0  0  0
  5  6  2  0  0  0  0
  5 13  1  0  0  0  0
  6  7  1  0  0  0  0
  6 14  1  0  0  0  0
  7  8  2  0  0  0  0
  7 15  1  0  0  0  0
  8  9  1  0  0  0  0
  8 16  1  0  0  0  0
  9 17  1  0  0  0  0
M  END
$$$$
