
 OpenBabel07122215493D

 22 23  0  0  0  0  0  0  0  0999 V2000
    0.9016    0.0235   -0.1048 C   0  0  0  0  0  0  0  0  0  0  0  0
    2.2414    0.0195   -0.0673 C   0  0  0  0  0  0  0  0  0  0  0  0
    3.1147    1.1908   -0.4397 C   0  0  0  0  0  0  0  0  0  0  0  0
    4.6115    0.9340   -0.3750 C   0  0  0  0  0  0  0  0  0  0  0  0
    5.5038    2.0342   -0.3256 C   0  0  0  0  0  0  0  0  0  0  0  0
    6.8906    1.8415   -0.2360 C   0  0  0  0  0  0  0  0  0  0  0  0
    7.3597    0.5465   -0.1977 C   0  0  0  0  0  0  0  0  0  0  0  0
    8.6571    0.1549   -0.0865 O   0  0  0  0  0  0  0  0  0  0  0  0
    8.5016   -1.2806   -0.0210 C   0  0  0  0  0  0  0  0  0  0  0  0
    7.1478   -1.7203   -0.2318 O   0  0  0  0  0  0  0  0  0  0  0  0
    6.5079   -0.5234   -0.2804 C   0  0  0  0  0  0  0  0  0  0  0  0
    5.1486   -0.3636   -0.3955 C   0  0  0  0  0  0  0  0  0  0  0  0
    0.3568   -0.8753    0.1674 H   0  0  0  0  0  0  0  0  0  0  0  0
    0.3392    0.9015   -0.3936 H   0  0  0  0  0  0  0  0  0  0  0  0
    2.6999   -0.9049    0.2652 H   0  0  0  0  0  0  0  0  0  0  0  0
    2.8804    2.0142    0.2486 H   0  0  0  0  0  0  0  0  0  0  0  0
    2.8737    1.5220   -1.4576 H   0  0  0  0  0  0  0  0  0  0  0  0
    5.1163    3.0521   -0.3532 H   0  0  0  0  0  0  0  0  0  0  0  0
    7.5729    2.6827   -0.1895 H   0  0  0  0  0  0  0  0  0  0  0  0
    8.8236   -1.6241    0.9692 H   0  0  0  0  0  0  0  0  0  0  0  0
    9.1383   -1.7449   -0.7815 H   0  0  0  0  0  0  0  0  0  0  0  0
    4.5416   -1.2550   -0.4834 H   0  0  0  0  0  0  0  0  0  0  0  0
  1  2  2  0  0  0  0
  1 13  1  0  0  0  0
  1 14  1  0  0  0  0
  2  3  1  0  0  0  0
  2 15  1  0  0  0  0
  3  4  1  0  0  0  0
  3 16  1  0  0  0  0
  3 17  1  0  0  0  0
  4  5  1  0  0  0  0
  4 12  2  0  0  0  0
  5  6  2  0  0  0  0
  5 18  1  0  0  0  0
  6  7  1  0  0  0  0
  6 19  1  0  0  0  0
  7  8  1  0  0  0  0
  7 11  2  0  0  0  0
  8  9  1  0  0  0  0
  9 10  1  0  0  0  0
  9 20  1  0  0  0  0
  9 21  1  0  0  0  0
 10 11  1  0  0  0  0
 11 12  1  0  0  0  0
 12 22  1  0  0  0  0
M  END
$$$$
