
 OpenBabel07202215583D

 38 38  0  0  1  0  0  0  0  0999 V2000
    2.4457    4.3619   -0.3402 C   0  0  0  0  0  0  0  0  0  0  0  0
    3.4087    4.3653   -1.4748 C   0  0  0  0  0  0  0  0  0  0  0  0
    4.6035    4.9604   -1.4828 C   0  0  0  0  0  0  0  0  0  0  0  0
    5.3115    4.7913   -2.7793 C   0  0  0  0  0  0  0  0  0  0  0  0
    4.5361    3.6289   -3.4133 C   0  0  1  0  0  0  0  0  0  0  0  0
    3.0920    3.6945   -2.7942 C   0  0  0  0  0  0  0  0  0  0  0  0
    2.0524    4.5377   -3.5800 C   0  0  0  0  0  0  0  0  0  0  0  0
    2.5370    2.2728   -2.6415 C   0  0  0  0  0  0  0  0  0  0  0  0
    4.5339    3.7622   -4.9134 C   0  0  0  0  0  0  0  0  0  0  0  0
    5.1338    2.6489   -5.7439 C   0  0  0  0  0  0  0  0  0  0  0  0
    4.8873    3.0553   -7.2175 C   0  0  2  0  0  0  0  0  0  0  0  0
    3.4014    3.3525   -7.5073 C   0  0  0  0  0  0  0  0  0  0  0  0
    5.3806    1.9943   -8.1872 C   0  0  0  0  0  0  0  0  0  0  0  0
    6.7688    1.7593   -8.0154 O   0  0  0  0  0  0  0  0  0  0  0  0
    2.8476    4.9116    0.5155 H   0  0  0  0  0  0  0  0  0  0  0  0
    2.2472    3.3367   -0.0162 H   0  0  0  0  0  0  0  0  0  0  0  0
    1.5007    4.8288   -0.6308 H   0  0  0  0  0  0  0  0  0  0  0  0
    5.0219    5.5322   -0.6638 H   0  0  0  0  0  0  0  0  0  0  0  0
    6.3654    4.5274   -2.6521 H   0  0  0  0  0  0  0  0  0  0  0  0
    5.2523    5.7197   -3.3593 H   0  0  0  0  0  0  0  0  0  0  0  0
    5.0258    2.6881   -3.1206 H   0  0  0  0  0  0  0  0  0  0  0  0
    2.4331    5.5362   -3.8239 H   0  0  0  0  0  0  0  0  0  0  0  0
    1.1194    4.6537   -3.0203 H   0  0  0  0  0  0  0  0  0  0  0  0
    1.7481    4.0588   -4.5207 H   0  0  0  0  0  0  0  0  0  0  0  0
    3.2076    1.6410   -2.0497 H   0  0  0  0  0  0  0  0  0  0  0  0
    2.4027    1.7965   -3.6199 H   0  0  0  0  0  0  0  0  0  0  0  0
    1.5610    2.2826   -2.1440 H   0  0  0  0  0  0  0  0  0  0  0  0
    3.4974    3.7443   -5.1944 H   0  0  0  0  0  0  0  0  0  0  0  0
    4.9372    4.7266   -5.2419 H   0  0  0  0  0  0  0  0  0  0  0  0
    4.6417    1.6938   -5.5165 H   0  0  0  0  0  0  0  0  0  0  0  0
    6.2013    2.5272   -5.5237 H   0  0  0  0  0  0  0  0  0  0  0  0
    5.4608    3.9771   -7.3894 H   0  0  0  0  0  0  0  0  0  0  0  0
    2.7775    2.4952   -7.2293 H   0  0  0  0  0  0  0  0  0  0  0  0
    3.2387    3.5920   -8.5588 H   0  0  0  0  0  0  0  0  0  0  0  0
    3.0283    4.2285   -6.9631 H   0  0  0  0  0  0  0  0  0  0  0  0
    5.2118    2.3265   -9.2165 H   0  0  0  0  0  0  0  0  0  0  0  0
    4.8441    1.0528   -8.0361 H   0  0  0  0  0  0  0  0  0  0  0  0
    7.2231    2.6136   -8.1137 H   0  0  0  0  0  0  0  0  0  0  0  0
  1  2  1  0  0  0  0
  1 15  1  0  0  0  0
  1 16  1  0  0  0  0
  1 17  1  0  0  0  0
  2  3  2  0  0  0  0
  2  6  1  0  0  0  0
  3  4  1  0  0  0  0
  3 18  1  0  0  0  0
  4  5  1  0  0  0  0
  4 19  1  0  0  0  0
  4 20  1  0  0  0  0
  5  6  1  0  0  0  0
  5  9  1  0  0  0  0
  5 21  1  1  0  0  0
  6  7  1  0  0  0  0
  6  8  1  0  0  0  0
  7 22  1  0  0  0  0
  7 23  1  0  0  0  0
  7 24  1  0  0  0  0
  8 25  1  0  0  0  0
  8 26  1  0  0  0  0
  8 27  1  0  0  0  0
  9 10  1  0  0  0  0
  9 28  1  0  0  0  0
  9 29  1  0  0  0  0
 10 30  1  0  0  0  0
 10 31  1  0  0  0  0
 11 13  1  0  0  0  0
 11 12  1  0  0  0  0
 11 10  1  0  0  0  0
 11 32  1  6  0  0  0
 12 33  1  0  0  0  0
 12 34  1  0  0  0  0
 12 35  1  0  0  0  0
 13 14  1  0  0  0  0
 13 36  1  0  0  0  0
 13 37  1  0  0  0  0
 14 38  1  0  0  0  0
M  END
$$$$
