
 OpenBabel07202215583D

 29 28  0  0  0  0  0  0  0  0999 V2000
    1.0772    0.0337   -0.0718 C   0  0  0  0  0  0  0  0  0  0  0  0
    2.5736    0.0328   -0.0628 C   0  0  0  0  0  0  0  0  0  0  0  0
    3.2942    0.2091   -1.3738 C   0  0  0  0  0  0  0  0  0  0  0  0
    3.2435   -0.1238    1.0986 C   0  0  0  0  0  0  0  0  0  0  0  0
    4.7364   -0.1300    1.1426 C   0  0  0  0  0  0  0  0  0  0  0  0
    5.3479   -0.3157    2.5285 C   0  0  0  0  0  0  0  0  0  0  0  0
    6.8669   -0.3092    2.5220 C   0  0  0  0  0  0  0  0  0  0  0  0
    7.6311   -0.1385    1.2284 C   0  0  0  0  0  0  0  0  0  0  0  0
    7.5464   -0.4690    3.6773 C   0  0  0  0  0  0  0  0  0  0  0  0
    9.0413   -0.4839    3.7444 C   0  0  0  0  0  0  0  0  0  0  0  0
    9.4559   -0.6769    5.0841 O   0  0  0  0  0  0  0  0  0  0  0  0
    0.6785    0.1696   -1.0811 H   0  0  0  0  0  0  0  0  0  0  0  0
    0.6940    0.8491    0.5503 H   0  0  0  0  0  0  0  0  0  0  0  0
    0.6943   -0.9173    0.3124 H   0  0  0  0  0  0  0  0  0  0  0  0
    2.6039    0.3221   -2.2136 H   0  0  0  0  0  0  0  0  0  0  0  0
    3.9270   -0.6601   -1.5868 H   0  0  0  0  0  0  0  0  0  0  0  0
    3.9272    1.1035   -1.3496 H   0  0  0  0  0  0  0  0  0  0  0  0
    2.7010   -0.2500    2.0313 H   0  0  0  0  0  0  0  0  0  0  0  0
    5.0866    0.8275    0.7355 H   0  0  0  0  0  0  0  0  0  0  0  0
    5.0869   -0.9460    0.4973 H   0  0  0  0  0  0  0  0  0  0  0  0
    4.9917   -1.2650    2.9507 H   0  0  0  0  0  0  0  0  0  0  0  0
    4.9871    0.4857    3.1871 H   0  0  0  0  0  0  0  0  0  0  0  0
    7.0126   -0.0199    0.3391 H   0  0  0  0  0  0  0  0  0  0  0  0
    8.2569   -1.0171    1.0420 H   0  0  0  0  0  0  0  0  0  0  0  0
    8.2601    0.7558    1.2778 H   0  0  0  0  0  0  0  0  0  0  0  0
    7.0007   -0.6112    4.6076 H   0  0  0  0  0  0  0  0  0  0  0  0
    9.4575    0.4633    3.3852 H   0  0  0  0  0  0  0  0  0  0  0  0
    9.4439   -1.3051    3.1439 H   0  0  0  0  0  0  0  0  0  0  0  0
    9.1576    0.1012    5.5828 H   0  0  0  0  0  0  0  0  0  0  0  0
  1  2  1  0  0  0  0
  1 12  1  0  0  0  0
  1 13  1  0  0  0  0
  1 14  1  0  0  0  0
  2  3  1  0  0  0  0
  2  4  2  0  0  0  0
  3 15  1  0  0  0  0
  3 16  1  0  0  0  0
  3 17  1  0  0  0  0
  4  5  1  0  0  0  0
  4 18  1  0  0  0  0
  5  6  1  0  0  0  0
  5 19  1  0  0  0  0
  5 20  1  0  0  0  0
  6  7  1  0  0  0  0
  6 21  1  0  0  0  0
  6 22  1  0  0  0  0
  7  8  1  0  0  0  0
  7  9  2  0  0  0  0
  8 23  1  0  0  0  0
  8 24  1  0  0  0  0
  8 25  1  0  0  0  0
  9 10  1  0  0  0  0
  9 26  1  0  0  0  0
 10 11  1  0  0  0  0
 10 27  1  0  0  0  0
 10 28  1  0  0  0  0
 11 29  1  0  0  0  0
M  END
$$$$
