
 OpenBabel07122215493D

 24 25  0  0  0  0  0  0  0  0999 V2000
    0.9757   -0.0034    0.0860 O   0  0  0  0  0  0  0  0  0  0  0  0
    2.2042    0.0316    0.0565 C   0  0  0  0  0  0  0  0  0  0  0  0
    3.0031   -0.9160    0.8657 C   0  0  0  0  0  0  0  0  0  0  0  0
    4.1881   -0.4942    1.4799 C   0  0  0  0  0  0  0  0  0  0  0  0
    5.0414   -1.4356    2.0504 C   0  0  0  0  0  0  0  0  0  0  0  0
    4.6657   -2.7779    2.0942 C   0  0  0  0  0  0  0  0  0  0  0  0
    3.4411   -3.1837    1.5592 C   0  0  0  0  0  0  0  0  0  0  0  0
    2.6033   -2.2520    0.9456 C   0  0  0  0  0  0  0  0  0  0  0  0
    2.9024    1.0325   -0.7885 C   0  0  0  0  0  0  0  0  0  0  0  0
    4.0054    0.6928   -1.5865 C   0  0  0  0  0  0  0  0  0  0  0  0
    4.6862    1.6929   -2.2860 C   0  0  0  0  0  0  0  0  0  0  0  0
    4.2267    3.0100   -2.2429 C   0  0  0  0  0  0  0  0  0  0  0  0
    3.1138    3.3394   -1.4683 C   0  0  0  0  0  0  0  0  0  0  0  0
    2.4533    2.3526   -0.7381 C   0  0  0  0  0  0  0  0  0  0  0  0
    4.4599    0.5583    1.5037 H   0  0  0  0  0  0  0  0  0  0  0  0
    6.0068   -1.1249    2.4413 H   0  0  0  0  0  0  0  0  0  0  0  0
    5.3278   -3.5089    2.5516 H   0  0  0  0  0  0  0  0  0  0  0  0
    3.1539   -4.2316    1.5943 H   0  0  0  0  0  0  0  0  0  0  0  0
    1.6602   -2.5696    0.5064 H   0  0  0  0  0  0  0  0  0  0  0  0
    4.3384   -0.3387   -1.6774 H   0  0  0  0  0  0  0  0  0  0  0  0
    5.5752    1.4510   -2.8645 H   0  0  0  0  0  0  0  0  0  0  0  0
    4.7311    3.7814   -2.8205 H   0  0  0  0  0  0  0  0  0  0  0  0
    2.7634    4.3670   -1.4245 H   0  0  0  0  0  0  0  0  0  0  0  0
    1.5962    2.6089   -0.1205 H   0  0  0  0  0  0  0  0  0  0  0  0
  1  2  2  0  0  0  0
  2  3  1  0  0  0  0
  2  9  1  0  0  0  0
  3  4  1  0  0  0  0
  3  8  2  0  0  0  0
  4  5  2  0  0  0  0
  4 15  1  0  0  0  0
  5  6  1  0  0  0  0
  5 16  1  0  0  0  0
  6  7  2  0  0  0  0
  6 17  1  0  0  0  0
  7  8  1  0  0  0  0
  7 18  1  0  0  0  0
  8 19  1  0  0  0  0
  9 10  1  0  0  0  0
  9 14  2  0  0  0  0
 10 11  2  0  0  0  0
 10 20  1  0  0  0  0
 11 12  1  0  0  0  0
 11 21  1  0  0  0  0
 12 13  2  0  0  0  0
 12 22  1  0  0  0  0
 13 14  1  0  0  0  0
 13 23  1  0  0  0  0
 14 24  1  0  0  0  0
M  END
$$$$
