
 OpenBabel07202215583D

 32 31  0  0  0  0  0  0  0  0999 V2000
    0.9696    0.1055   -0.0262 C   0  0  0  0  0  0  0  0  0  0  0  0
    2.4870    0.0970   -0.0311 C   0  0  0  0  0  0  0  0  0  0  0  0
    3.0120   -1.1411   -0.7492 C   0  0  0  0  0  0  0  0  0  0  0  0
    4.5352   -1.1592   -0.7597 C   0  0  0  0  0  0  0  0  0  0  0  0
    5.0543   -2.4022   -1.4807 C   0  0  0  0  0  0  0  0  0  0  0  0
    6.5783   -2.4145   -1.4879 C   0  0  0  0  0  0  0  0  0  0  0  0
    7.1538   -3.6419   -2.1998 C   0  0  0  0  0  0  0  0  0  0  0  0
    8.6686   -3.5957   -2.1730 C   0  0  0  0  0  0  0  0  0  0  0  0
    9.3239   -2.6992   -1.6530 O   0  0  0  0  0  0  0  0  0  0  0  0
    9.2133   -4.6789   -2.8012 O   0  0  0  0  0  0  0  0  0  0  0  0
   10.6523   -4.6729   -2.7978 C   0  0  0  0  0  0  0  0  0  0  0  0
   11.1775   -5.9052   -3.5125 C   0  0  0  0  0  0  0  0  0  0  0  0
    0.5958    0.9942    0.4893 H   0  0  0  0  0  0  0  0  0  0  0  0
    0.5792   -0.7799    0.4857 H   0  0  0  0  0  0  0  0  0  0  0  0
    0.5792    0.1102   -1.0489 H   0  0  0  0  0  0  0  0  0  0  0  0
    2.8568    0.1163    1.0008 H   0  0  0  0  0  0  0  0  0  0  0  0
    2.8568    1.0023   -0.5267 H   0  0  0  0  0  0  0  0  0  0  0  0
    2.6363   -1.1583   -1.7796 H   0  0  0  0  0  0  0  0  0  0  0  0
    2.6363   -2.0440   -0.2525 H   0  0  0  0  0  0  0  0  0  0  0  0
    4.9115   -1.1414    0.2708 H   0  0  0  0  0  0  0  0  0  0  0  0
    4.9115   -0.2559   -1.2559 H   0  0  0  0  0  0  0  0  0  0  0  0
    4.6756   -2.4150   -2.5096 H   0  0  0  0  0  0  0  0  0  0  0  0
    4.6756   -3.3017   -0.9810 H   0  0  0  0  0  0  0  0  0  0  0  0
    6.9444   -2.3852   -0.4535 H   0  0  0  0  0  0  0  0  0  0  0  0
    6.9444   -1.5021   -1.9760 H   0  0  0  0  0  0  0  0  0  0  0  0
    6.8119   -3.6574   -3.2405 H   0  0  0  0  0  0  0  0  0  0  0  0
    6.8119   -4.5530   -1.6965 H   0  0  0  0  0  0  0  0  0  0  0  0
   11.0179   -4.6739   -1.7641 H   0  0  0  0  0  0  0  0  0  0  0  0
   11.0179   -3.7761   -3.3118 H   0  0  0  0  0  0  0  0  0  0  0  0
   10.8256   -6.8192   -3.0239 H   0  0  0  0  0  0  0  0  0  0  0  0
   12.2728   -5.9129   -3.5170 H   0  0  0  0  0  0  0  0  0  0  0  0
   10.8256   -5.9349   -4.5485 H   0  0  0  0  0  0  0  0  0  0  0  0
  1  2  1  0  0  0  0
  1 13  1  0  0  0  0
  1 14  1  0  0  0  0
  1 15  1  0  0  0  0
  2  3  1  0  0  0  0
  2 16  1  0  0  0  0
  2 17  1  0  0  0  0
  3  4  1  0  0  0  0
  3 18  1  0  0  0  0
  3 19  1  0  0  0  0
  4  5  1  0  0  0  0
  4 20  1  0  0  0  0
  4 21  1  0  0  0  0
  5  6  1  0  0  0  0
  5 22  1  0  0  0  0
  5 23  1  0  0  0  0
  6  7  1  0  0  0  0
  6 24  1  0  0  0  0
  6 25  1  0  0  0  0
  7  8  1  0  0  0  0
  7 26  1  0  0  0  0
  7 27  1  0  0  0  0
  8  9  2  0  0  0  0
  8 10  1  0  0  0  0
 10 11  1  0  0  0  0
 11 12  1  0  0  0  0
 11 28  1  0  0  0  0
 11 29  1  0  0  0  0
 12 30  1  0  0  0  0
 12 31  1  0  0  0  0
 12 32  1  0  0  0  0
M  END
$$$$
