
 OpenBabel07202215583D

 25 25  0  0  0  0  0  0  0  0999 V2000
    1.1049   -0.0127    0.0494 C   0  0  0  0  0  0  0  0  0  0  0  0
    2.6092   -0.0499    0.0478 C   0  0  0  0  0  0  0  0  0  0  0  0
    3.2309   -1.0417   -0.3017 O   0  0  0  0  0  0  0  0  0  0  0  0
    3.3506    1.1951    0.3856 C   0  0  0  0  0  0  0  0  0  0  0  0
    3.0483    2.0203    1.4863 C   0  0  0  0  0  0  0  0  0  0  0  0
    3.8058    3.1996    1.7641 C   0  0  0  0  0  0  0  0  0  0  0  0
    4.8533    3.4938    0.8682 C   0  0  0  0  0  0  0  0  0  0  0  0
    5.1455    2.6657   -0.2156 C   0  0  0  0  0  0  0  0  0  0  0  0
    4.4095    1.5188   -0.4565 C   0  0  0  0  0  0  0  0  0  0  0  0
    5.6606    4.5953    0.8715 O   0  0  0  0  0  0  0  0  0  0  0  0
    3.3585    4.0242    2.9797 C   0  0  0  0  0  0  0  0  0  0  0  0
    4.0860    5.3061    3.2802 C   0  0  0  0  0  0  0  0  0  0  0  0
    3.9538    6.1201    4.3327 C   0  0  0  0  0  0  0  0  0  0  0  0
    0.7311   -0.9930   -0.2680 H   0  0  0  0  0  0  0  0  0  0  0  0
    0.7505    0.7301   -0.6703 H   0  0  0  0  0  0  0  0  0  0  0  0
    0.7191    0.1934    1.0478 H   0  0  0  0  0  0  0  0  0  0  0  0
    2.2242    1.7425    2.1436 H   0  0  0  0  0  0  0  0  0  0  0  0
    5.9616    2.9347   -0.8806 H   0  0  0  0  0  0  0  0  0  0  0  0
    4.6589    0.8962   -1.3114 H   0  0  0  0  0  0  0  0  0  0  0  0
    6.0186    4.7452    1.7584 H   0  0  0  0  0  0  0  0  0  0  0  0
    3.4089    3.3703    3.8638 H   0  0  0  0  0  0  0  0  0  0  0  0
    2.3003    4.2792    2.8296 H   0  0  0  0  0  0  0  0  0  0  0  0
    4.7619    5.7090    2.5505 H   0  0  0  0  0  0  0  0  0  0  0  0
    3.2369    5.9694    5.1276 H   0  0  0  0  0  0  0  0  0  0  0  0
    4.5849    7.0082    4.3693 H   0  0  0  0  0  0  0  0  0  0  0  0
  1  2  1  0  0  0  0
  1 14  1  0  0  0  0
  1 15  1  0  0  0  0
  1 16  1  0  0  0  0
  2  3  2  0  0  0  0
  2  4  1  0  0  0  0
  4  5  2  0  0  0  0
  4  9  1  0  0  0  0
  5  6  1  0  0  0  0
  5 17  1  0  0  0  0
  6  7  2  0  0  0  0
  6 11  1  0  0  0  0
  7  8  1  0  0  0  0
  7 10  1  0  0  0  0
  8  9  2  0  0  0  0
  8 18  1  0  0  0  0
  9 19  1  0  0  0  0
 10 20  1  0  0  0  0
 11 12  1  0  0  0  0
 11 21  1  0  0  0  0
 11 22  1  0  0  0  0
 12 13  2  0  0  0  0
 12 23  1  0  0  0  0
 13 24  1  0  0  0  0
 13 25  1  0  0  0  0
M  END
$$$$
