
 OpenBabel07202215583D

 31 31  0  0  0  0  0  0  0  0999 V2000
    1.0284   -0.0240   -0.0482 C   0  0  0  0  0  0  0  0  0  0  0  0
    2.5596   -0.0786   -0.0323 C   0  0  0  0  0  0  0  0  0  0  0  0
    3.0902   -0.1505    1.3993 C   0  0  0  0  0  0  0  0  0  0  0  0
    3.0360   -1.2495   -0.8674 C   0  0  0  0  0  0  0  0  0  0  0  0
    2.7190   -2.5727   -0.5084 C   0  0  0  0  0  0  0  0  0  0  0  0
    3.0125   -3.6878   -1.3281 C   0  0  0  0  0  0  0  0  0  0  0  0
    3.7035   -3.4124   -2.5201 C   0  0  0  0  0  0  0  0  0  0  0  0
    4.0690   -2.1048   -2.8593 C   0  0  0  0  0  0  0  0  0  0  0  0
    3.7374   -1.0293   -2.0486 C   0  0  0  0  0  0  0  0  0  0  0  0
    4.1037   -4.2887   -3.4839 O   0  0  0  0  0  0  0  0  0  0  0  0
    2.5395   -5.0392   -0.7881 C   0  0  0  0  0  0  0  0  0  0  0  0
    1.0156   -5.0649   -0.5563 C   0  0  0  0  0  0  0  0  0  0  0  0
    2.8936   -6.2581   -1.6295 C   0  0  0  0  0  0  0  0  0  0  0  0
    0.6612    0.8390    0.5150 H   0  0  0  0  0  0  0  0  0  0  0  0
    0.5859   -0.9234    0.3952 H   0  0  0  0  0  0  0  0  0  0  0  0
    0.6512    0.0541   -1.0747 H   0  0  0  0  0  0  0  0  0  0  0  0
    2.9314    0.8542   -0.4775 H   0  0  0  0  0  0  0  0  0  0  0  0
    2.7455   -1.0505    1.9193 H   0  0  0  0  0  0  0  0  0  0  0  0
    2.7529    0.7144    1.9796 H   0  0  0  0  0  0  0  0  0  0  0  0
    4.1856   -0.1608    1.4085 H   0  0  0  0  0  0  0  0  0  0  0  0
    2.1961   -2.7319    0.4346 H   0  0  0  0  0  0  0  0  0  0  0  0
    4.6040   -1.9351   -3.7904 H   0  0  0  0  0  0  0  0  0  0  0  0
    4.0168   -0.0280   -2.3637 H   0  0  0  0  0  0  0  0  0  0  0  0
    3.7991   -5.1858   -3.3182 H   0  0  0  0  0  0  0  0  0  0  0  0
    3.0262   -5.1803    0.1892 H   0  0  0  0  0  0  0  0  0  0  0  0
    0.4760   -4.8485   -1.4846 H   0  0  0  0  0  0  0  0  0  0  0  0
    0.6913   -4.3369    0.1946 H   0  0  0  0  0  0  0  0  0  0  0  0
    0.6925   -6.0492   -0.1971 H   0  0  0  0  0  0  0  0  0  0  0  0
    2.3892   -6.2038   -2.6013 H   0  0  0  0  0  0  0  0  0  0  0  0
    2.5681   -7.1903   -1.1606 H   0  0  0  0  0  0  0  0  0  0  0  0
    3.9778   -6.3305   -1.7646 H   0  0  0  0  0  0  0  0  0  0  0  0
  1  2  1  0  0  0  0
  1 14  1  0  0  0  0
  1 15  1  0  0  0  0
  1 16  1  0  0  0  0
  2  3  1  0  0  0  0
  2  4  1  0  0  0  0
  2 17  1  0  0  0  0
  3 18  1  0  0  0  0
  3 19  1  0  0  0  0
  3 20  1  0  0  0  0
  4  5  2  0  0  0  0
  4  9  1  0  0  0  0
  5  6  1  0  0  0  0
  5 21  1  0  0  0  0
  6  7  2  0  0  0  0
  6 11  1  0  0  0  0
  7  8  1  0  0  0  0
  7 10  1  0  0  0  0
  8  9  2  0  0  0  0
  8 22  1  0  0  0  0
  9 23  1  0  0  0  0
 10 24  1  0  0  0  0
 11 12  1  0  0  0  0
 11 13  1  0  0  0  0
 11 25  1  0  0  0  0
 12 26  1  0  0  0  0
 12 27  1  0  0  0  0
 12 28  1  0  0  0  0
 13 29  1  0  0  0  0
 13 30  1  0  0  0  0
 13 31  1  0  0  0  0
M  END
$$$$
