
 OpenBabel07202215583D

 19 19  0  0  0  0  0  0  0  0999 V2000
    0.9082   -0.0950   -0.0001 C   0  0  0  0  0  0  0  0  0  0  0  0
    2.4317   -0.0552    0.0421 C   0  0  0  0  0  0  0  0  0  0  0  0
    2.9006    0.8157    1.1807 C   0  0  0  0  0  0  0  0  0  0  0  0
    3.5241    0.2711    2.3105 C   0  0  0  0  0  0  0  0  0  0  0  0
    3.8522    1.0871    3.3991 C   0  0  0  0  0  0  0  0  0  0  0  0
    3.5553    2.4476    3.3485 C   0  0  0  0  0  0  0  0  0  0  0  0
    3.8317    3.2826    4.3910 O   0  0  0  0  0  0  0  0  0  0  0  0
    2.9576    3.0040    2.2287 C   0  0  0  0  0  0  0  0  0  0  0  0
    2.6424    2.1943    1.1411 C   0  0  0  0  0  0  0  0  0  0  0  0
    0.5587   -0.7176   -0.8279 H   0  0  0  0  0  0  0  0  0  0  0  0
    0.4844    0.9068   -0.1351 H   0  0  0  0  0  0  0  0  0  0  0  0
    0.5031   -0.4993    0.9341 H   0  0  0  0  0  0  0  0  0  0  0  0
    2.8254    0.3393   -0.9024 H   0  0  0  0  0  0  0  0  0  0  0  0
    2.8232   -1.0744    0.1446 H   0  0  0  0  0  0  0  0  0  0  0  0
    3.7401   -0.7946    2.3612 H   0  0  0  0  0  0  0  0  0  0  0  0
    4.3167    0.6448    4.2734 H   0  0  0  0  0  0  0  0  0  0  0  0
    4.2645    2.7727    5.0927 H   0  0  0  0  0  0  0  0  0  0  0  0
    2.7206    4.0637    2.2038 H   0  0  0  0  0  0  0  0  0  0  0  0
    2.1638    2.6368    0.2716 H   0  0  0  0  0  0  0  0  0  0  0  0
  1  2  1  0  0  0  0
  1 10  1  0  0  0  0
  1 11  1  0  0  0  0
  1 12  1  0  0  0  0
  2  3  1  0  0  0  0
  2 13  1  0  0  0  0
  2 14  1  0  0  0  0
  3  4  1  0  0  0  0
  3  9  2  0  0  0  0
  4  5  2  0  0  0  0
  4 15  1  0  0  0  0
  5  6  1  0  0  0  0
  5 16  1  0  0  0  0
  6  7  1  0  0  0  0
  6  8  2  0  0  0  0
  7 17  1  0  0  0  0
  8  9  1  0  0  0  0
  8 18  1  0  0  0  0
  9 19  1  0  0  0  0
M  END
$$$$
