
 OpenBabel07222214433D

 23 23  0  0  0  0  0  0  0  0999 V2000
    0.9022    0.0410    0.0342 C   0  0  0  0  0  0  0  0  0  0  0  0
    2.4432    0.0680    0.0490 C   0  0  0  0  0  0  0  0  0  0  0  0
    2.9381    1.2171    0.9451 C   0  0  0  0  0  0  0  0  0  0  0  0
    2.4866    2.5774    0.5029 C   0  0  0  0  0  0  0  0  0  0  0  0
    2.7561    3.5975    1.1392 O   0  0  0  0  0  0  0  0  0  0  0  0
    2.9437   -1.2964    0.5237 C   0  0  0  0  0  0  0  0  0  0  0  0
    2.5784   -2.4545   -0.1817 C   0  0  0  0  0  0  0  0  0  0  0  0
    2.8069   -3.7186    0.3641 C   0  0  0  0  0  0  0  0  0  0  0  0
    3.4982   -3.8483    1.5660 C   0  0  0  0  0  0  0  0  0  0  0  0
    3.9446   -2.7152    2.2336 C   0  0  0  0  0  0  0  0  0  0  0  0
    3.6691   -1.4523    1.7167 C   0  0  0  0  0  0  0  0  0  0  0  0
    0.4770    0.9851   -0.3155 H   0  0  0  0  0  0  0  0  0  0  0  0
    0.5092   -0.1544    1.0387 H   0  0  0  0  0  0  0  0  0  0  0  0
    0.5124   -0.7373   -0.6302 H   0  0  0  0  0  0  0  0  0  0  0  0
    2.8072    0.2358   -0.9744 H   0  0  0  0  0  0  0  0  0  0  0  0
    4.0350    1.2357    0.9578 H   0  0  0  0  0  0  0  0  0  0  0  0
    2.5746    1.0788    1.9715 H   0  0  0  0  0  0  0  0  0  0  0  0
    1.8985    2.6381   -0.4236 H   0  0  0  0  0  0  0  0  0  0  0  0
    2.0656   -2.3828   -1.1390 H   0  0  0  0  0  0  0  0  0  0  0  0
    2.4190   -4.6021   -0.1353 H   0  0  0  0  0  0  0  0  0  0  0  0
    3.6894   -4.8314    1.9845 H   0  0  0  0  0  0  0  0  0  0  0  0
    4.4765   -2.8016    3.1770 H   0  0  0  0  0  0  0  0  0  0  0  0
    4.0103   -0.5998    2.2968 H   0  0  0  0  0  0  0  0  0  0  0  0
  1  2  1  0  0  0  0
  1 12  1  0  0  0  0
  1 13  1  0  0  0  0
  1 14  1  0  0  0  0
  2  3  1  0  0  0  0
  2  6  1  0  0  0  0
  2 15  1  0  0  0  0
  3  4  1  0  0  0  0
  3 16  1  0  0  0  0
  3 17  1  0  0  0  0
  4  5  2  0  0  0  0
  4 18  1  0  0  0  0
  6  7  2  0  0  0  0
  6 11  1  0  0  0  0
  7  8  1  0  0  0  0
  7 19  1  0  0  0  0
  8  9  2  0  0  0  0
  8 20  1  0  0  0  0
  9 10  1  0  0  0  0
  9 21  1  0  0  0  0
 10 11  2  0  0  0  0
 10 22  1  0  0  0  0
 11 23  1  0  0  0  0
M  END
$$$$
