
 OpenBabel07222214433D

 23 22  0  0  0  0  0  0  0  0999 V2000
    0.9015    0.0695    0.0178 C   0  0  0  0  0  0  0  0  0  0  0  0
    2.4181    0.0669    0.0144 C   0  0  0  0  0  0  0  0  0  0  0  0
    2.9455   -0.8079   -1.1128 C   0  0  0  0  0  0  0  0  0  0  0  0
    4.4691   -0.8158   -1.1229 C   0  0  0  0  0  0  0  0  0  0  0  0
    4.9640   -1.6974   -2.2590 C   0  0  0  0  0  0  0  0  0  0  0  0
    6.4813   -1.7451   -2.3205 C   0  0  0  0  0  0  0  0  0  0  0  0
    7.0553   -2.6028   -3.4257 C   0  0  0  0  0  0  0  0  0  0  0  0
    6.1839   -3.2325   -4.2371 O   0  0  0  0  0  0  0  0  0  0  0  0
    8.2648   -2.7258   -3.5841 O   0  0  0  0  0  0  0  0  0  0  0  0
    0.5258    0.6988    0.8287 H   0  0  0  0  0  0  0  0  0  0  0  0
    0.5128   -0.9443    0.1582 H   0  0  0  0  0  0  0  0  0  0  0  0
    0.5128    0.4572   -0.9294 H   0  0  0  0  0  0  0  0  0  0  0  0
    2.7877   -0.3040    0.9773 H   0  0  0  0  0  0  0  0  0  0  0  0
    2.7877    1.0917   -0.1058 H   0  0  0  0  0  0  0  0  0  0  0  0
    2.5714   -0.4394   -2.0765 H   0  0  0  0  0  0  0  0  0  0  0  0
    2.5714   -1.8329   -0.9950 H   0  0  0  0  0  0  0  0  0  0  0  0
    4.8474   -1.1910   -0.1646 H   0  0  0  0  0  0  0  0  0  0  0  0
    4.8474    0.2057   -1.2486 H   0  0  0  0  0  0  0  0  0  0  0  0
    4.5693   -1.3136   -3.2079 H   0  0  0  0  0  0  0  0  0  0  0  0
    4.5693   -2.7119   -2.1228 H   0  0  0  0  0  0  0  0  0  0  0  0
    6.8684   -2.1309   -1.3695 H   0  0  0  0  0  0  0  0  0  0  0  0
    6.8684   -0.7282   -2.4581 H   0  0  0  0  0  0  0  0  0  0  0  0
    5.2340   -3.1027   -4.0697 H   0  0  0  0  0  0  0  0  0  0  0  0
  1  2  1  0  0  0  0
  1 10  1  0  0  0  0
  1 11  1  0  0  0  0
  1 12  1  0  0  0  0
  2  3  1  0  0  0  0
  2 13  1  0  0  0  0
  2 14  1  0  0  0  0
  3  4  1  0  0  0  0
  3 15  1  0  0  0  0
  3 16  1  0  0  0  0
  4  5  1  0  0  0  0
  4 17  1  0  0  0  0
  4 18  1  0  0  0  0
  5  6  1  0  0  0  0
  5 19  1  0  0  0  0
  5 20  1  0  0  0  0
  6  7  1  0  0  0  0
  6 21  1  0  0  0  0
  6 22  1  0  0  0  0
  7  8  1  0  0  0  0
  7  9  2  0  0  0  0
  8 23  1  0  0  0  0
M  END
$$$$
