
 OpenBabel07222214433D

 45 47  0  0  0  0  0  0  0  0999 V2000
    1.0519    0.0781    0.0147 C   0  0  0  0  0  0  0  0  0  0  0  0
    2.5820    0.1042    0.0128 C   0  0  0  0  0  0  0  0  0  0  0  0
    3.1167    1.5354   -0.1160 C   0  0  0  0  0  0  0  0  0  0  0  0
    2.8440    2.0586   -1.4176 O   0  0  0  0  0  0  0  0  0  0  0  0
    3.6137    1.3864   -2.4173 C   0  0  0  0  0  0  0  0  0  0  0  0
    3.5560   -0.1134   -2.3096 C   0  0  0  0  0  0  0  0  0  0  0  0
    4.0194   -0.8876   -3.3785 C   0  0  0  0  0  0  0  0  0  0  0  0
    3.9913   -2.2639   -3.2731 C   0  0  0  0  0  0  0  0  0  0  0  0
    3.5207   -2.8855   -2.1108 C   0  0  0  0  0  0  0  0  0  0  0  0
    3.0780   -2.1326   -1.0333 C   0  0  0  0  0  0  0  0  0  0  0  0
    3.0966   -0.7410   -1.1299 C   0  0  0  0  0  0  0  0  0  0  0  0
    3.6063   -4.3861   -2.2013 C   0  0  0  0  0  0  0  0  0  0  0  0
    2.3094   -5.0519   -1.7198 C   0  0  0  0  0  0  0  0  0  0  0  0
    4.7834   -4.8860   -1.3517 C   0  0  0  0  0  0  0  0  0  0  0  0
    3.8010   -4.5784   -3.7457 C   0  0  0  0  0  0  0  0  0  0  0  0
    4.5678   -5.8479   -4.1096 C   0  0  0  0  0  0  0  0  0  0  0  0
    4.4648   -3.2690   -4.2944 C   0  0  0  0  0  0  0  0  0  0  0  0
    3.9487   -2.9319   -5.7008 C   0  0  0  0  0  0  0  0  0  0  0  0
    6.0001   -3.3040   -4.3157 C   0  0  0  0  0  0  0  0  0  0  0  0
    0.6587    0.6577    0.8555 H   0  0  0  0  0  0  0  0  0  0  0  0
    0.6713   -0.9455    0.1103 H   0  0  0  0  0  0  0  0  0  0  0  0
    0.6403    0.4946   -0.9114 H   0  0  0  0  0  0  0  0  0  0  0  0
    2.9465   -0.3123    0.9609 H   0  0  0  0  0  0  0  0  0  0  0  0
    4.1970    1.5775    0.0741 H   0  0  0  0  0  0  0  0  0  0  0  0
    2.6299    2.1892    0.6141 H   0  0  0  0  0  0  0  0  0  0  0  0
    4.6574    1.7147   -2.3457 H   0  0  0  0  0  0  0  0  0  0  0  0
    3.2209    1.6962   -3.3919 H   0  0  0  0  0  0  0  0  0  0  0  0
    4.3998   -0.4079   -4.2774 H   0  0  0  0  0  0  0  0  0  0  0  0
    2.7195   -2.6196   -0.1300 H   0  0  0  0  0  0  0  0  0  0  0  0
    2.1596   -4.8975   -0.6444 H   0  0  0  0  0  0  0  0  0  0  0  0
    2.3310   -6.1310   -1.8988 H   0  0  0  0  0  0  0  0  0  0  0  0
    1.4293   -4.6388   -2.2273 H   0  0  0  0  0  0  0  0  0  0  0  0
    4.6281   -4.6768   -0.2883 H   0  0  0  0  0  0  0  0  0  0  0  0
    5.7251   -4.4033   -1.6232 H   0  0  0  0  0  0  0  0  0  0  0  0
    4.9184   -5.9668   -1.4577 H   0  0  0  0  0  0  0  0  0  0  0  0
    2.7999   -4.6612   -4.2011 H   0  0  0  0  0  0  0  0  0  0  0  0
    5.5801   -5.8421   -3.6928 H   0  0  0  0  0  0  0  0  0  0  0  0
    4.6616   -5.9492   -5.1943 H   0  0  0  0  0  0  0  0  0  0  0  0
    4.0592   -6.7345   -3.7212 H   0  0  0  0  0  0  0  0  0  0  0  0
    2.8602   -2.8005   -5.7137 H   0  0  0  0  0  0  0  0  0  0  0  0
    4.2047   -3.7225   -6.4130 H   0  0  0  0  0  0  0  0  0  0  0  0
    4.3884   -1.9985   -6.0724 H   0  0  0  0  0  0  0  0  0  0  0  0
    6.4253   -3.5165   -3.3322 H   0  0  0  0  0  0  0  0  0  0  0  0
    6.4200   -2.3432   -4.6305 H   0  0  0  0  0  0  0  0  0  0  0  0
    6.3683   -4.0666   -5.0095 H   0  0  0  0  0  0  0  0  0  0  0  0
  1  2  1  0  0  0  0
  1 20  1  0  0  0  0
  1 21  1  0  0  0  0
  1 22  1  0  0  0  0
  2  3  1  0  0  0  0
  2 11  1  0  0  0  0
  2 23  1  0  0  0  0
  3  4  1  0  0  0  0
  3 24  1  0  0  0  0
  3 25  1  0  0  0  0
  4  5  1  0  0  0  0
  5  6  1  0  0  0  0
  5 26  1  0  0  0  0
  5 27  1  0  0  0  0
  6  7  1  0  0  0  0
  6 11  2  0  0  0  0
  7  8  2  0  0  0  0
  7 28  1  0  0  0  0
  8  9  1  0  0  0  0
  8 17  1  0  0  0  0
  9 10  2  0  0  0  0
  9 12  1  0  0  0  0
 10 11  1  0  0  0  0
 10 29  1  0  0  0  0
 12 13  1  0  0  0  0
 12 14  1  0  0  0  0
 12 15  1  0  0  0  0
 13 30  1  0  0  0  0
 13 31  1  0  0  0  0
 13 32  1  0  0  0  0
 14 33  1  0  0  0  0
 14 34  1  0  0  0  0
 14 35  1  0  0  0  0
 15 16  1  0  0  0  0
 15 17  1  0  0  0  0
 15 36  1  0  0  0  0
 16 37  1  0  0  0  0
 16 38  1  0  0  0  0
 16 39  1  0  0  0  0
 17 18  1  0  0  0  0
 17 19  1  0  0  0  0
 18 40  1  0  0  0  0
 18 41  1  0  0  0  0
 18 42  1  0  0  0  0
 19 43  1  0  0  0  0
 19 44  1  0  0  0  0
 19 45  1  0  0  0  0
M  END
$$$$
