
 OpenBabel07222214433D

 39 38  0  0  0  0  0  0  0  0999 V2000
    0.8764   -0.0711    0.0091 C   0  0  0  0  0  0  0  0  0  0  0  0
    2.3936   -0.0622    0.0043 C   0  0  0  0  0  0  0  0  0  0  0  0
    2.9220    1.1940   -0.6765 C   0  0  0  0  0  0  0  0  0  0  0  0
    4.4440    1.2050   -0.6824 C   0  0  0  0  0  0  0  0  0  0  0  0
    4.9610    2.4632   -1.3642 C   0  0  0  0  0  0  0  0  0  0  0  0
    6.4814    2.4736   -1.3698 C   0  0  0  0  0  0  0  0  0  0  0  0
    6.9963    3.7314   -2.0514 C   0  0  0  0  0  0  0  0  0  0  0  0
    8.5167    3.7416   -2.0568 C   0  0  0  0  0  0  0  0  0  0  0  0
    9.0340    4.9997   -2.7384 C   0  0  0  0  0  0  0  0  0  0  0  0
   10.5560    5.0098   -2.7438 C   0  0  0  0  0  0  0  0  0  0  0  0
   11.0844    6.2640   -3.4245 C   0  0  0  0  0  0  0  0  0  0  0  0
   12.6041    6.2742   -3.4322 C   0  0  0  0  0  0  0  0  0  0  0  0
   13.0715    7.4557   -4.0671 O   0  0  0  0  0  0  0  0  0  0  0  0
    0.5042   -0.9750    0.4989 H   0  0  0  0  0  0  0  0  0  0  0  0
    0.4848   -0.0471   -1.0129 H   0  0  0  0  0  0  0  0  0  0  0  0
    0.4848    0.7982    0.5470 H   0  0  0  0  0  0  0  0  0  0  0  0
    2.7635   -0.9527   -0.5173 H   0  0  0  0  0  0  0  0  0  0  0  0
    2.7635   -0.1115    1.0351 H   0  0  0  0  0  0  0  0  0  0  0  0
    2.5496    2.0846   -0.1553 H   0  0  0  0  0  0  0  0  0  0  0  0
    2.5496    1.2437   -1.7071 H   0  0  0  0  0  0  0  0  0  0  0  0
    4.8219    0.3184   -1.2062 H   0  0  0  0  0  0  0  0  0  0  0  0
    4.8219    1.1597    0.3464 H   0  0  0  0  0  0  0  0  0  0  0  0
    4.5859    3.3519   -0.8417 H   0  0  0  0  0  0  0  0  0  0  0  0
    4.5859    2.5107   -2.3940 H   0  0  0  0  0  0  0  0  0  0  0  0
    6.8581    1.5861   -1.8931 H   0  0  0  0  0  0  0  0  0  0  0  0
    6.8581    2.4274   -0.3406 H   0  0  0  0  0  0  0  0  0  0  0  0
    6.6198    4.6189   -1.5281 H   0  0  0  0  0  0  0  0  0  0  0  0
    6.6198    3.7776   -3.0807 H   0  0  0  0  0  0  0  0  0  0  0  0
    8.8918    2.8530   -2.5794 H   0  0  0  0  0  0  0  0  0  0  0  0
    8.8918    3.6940   -1.0270 H   0  0  0  0  0  0  0  0  0  0  0  0
    8.6565    5.8865   -2.2148 H   0  0  0  0  0  0  0  0  0  0  0  0
    8.6565    5.0451   -3.7673 H   0  0  0  0  0  0  0  0  0  0  0  0
   10.9280    4.1191   -3.2650 H   0  0  0  0  0  0  0  0  0  0  0  0
   10.9283    4.9606   -1.7132 H   0  0  0  0  0  0  0  0  0  0  0  0
   10.7121    7.1610   -2.9141 H   0  0  0  0  0  0  0  0  0  0  0  0
   10.7075    6.3249   -4.4530 H   0  0  0  0  0  0  0  0  0  0  0  0
   13.0024    5.4076   -3.9699 H   0  0  0  0  0  0  0  0  0  0  0  0
   12.9966    6.2551   -2.4112 H   0  0  0  0  0  0  0  0  0  0  0  0
   12.7201    7.4581   -4.9708 H   0  0  0  0  0  0  0  0  0  0  0  0
  1  2  1  0  0  0  0
  1 14  1  0  0  0  0
  1 15  1  0  0  0  0
  1 16  1  0  0  0  0
  2  3  1  0  0  0  0
  2 17  1  0  0  0  0
  2 18  1  0  0  0  0
  3  4  1  0  0  0  0
  3 19  1  0  0  0  0
  3 20  1  0  0  0  0
  4  5  1  0  0  0  0
  4 21  1  0  0  0  0
  4 22  1  0  0  0  0
  5  6  1  0  0  0  0
  5 23  1  0  0  0  0
  5 24  1  0  0  0  0
  6  7  1  0  0  0  0
  6 25  1  0  0  0  0
  6 26  1  0  0  0  0
  7  8  1  0  0  0  0
  7 27  1  0  0  0  0
  7 28  1  0  0  0  0
  8  9  1  0  0  0  0
  8 29  1  0  0  0  0
  8 30  1  0  0  0  0
  9 10  1  0  0  0  0
  9 31  1  0  0  0  0
  9 32  1  0  0  0  0
 10 11  1  0  0  0  0
 10 33  1  0  0  0  0
 10 34  1  0  0  0  0
 11 12  1  0  0  0  0
 11 35  1  0  0  0  0
 11 36  1  0  0  0  0
 12 13  1  0  0  0  0
 12 37  1  0  0  0  0
 12 38  1  0  0  0  0
 13 39  1  0  0  0  0
M  END
$$$$
