
 OpenBabel07222214433D

 18 18  0  0  0  0  0  0  0  0999 V2000
    0.9314    0.1033   -0.0102 C   0  0  0  0  0  0  0  0  0  0  0  0
    2.4527    0.1351   -0.0064 C   0  0  0  0  0  0  0  0  0  0  0  0
    2.9664    0.3415    1.3953 C   0  0  0  0  0  0  0  0  0  0  0  0
    3.3678   -0.6610    2.2049 C   0  0  0  0  0  0  0  0  0  0  0  0
    3.7667   -0.3236    3.6049 C   0  0  0  0  0  0  0  0  0  0  0  0
    4.1317   -1.1710    4.4157 O   0  0  0  0  0  0  0  0  0  0  0  0
    3.6910    1.0913    4.0004 C   0  0  0  0  0  0  0  0  0  0  0  0
    3.3120    1.9839    3.0847 C   0  0  0  0  0  0  0  0  0  0  0  0
    2.9574    1.6766    1.7943 O   0  0  0  0  0  0  0  0  0  0  0  0
    3.3939   -1.9955    1.8480 O   0  0  0  0  0  0  0  0  0  0  0  0
    0.5583   -0.1419   -1.0088 H   0  0  0  0  0  0  0  0  0  0  0  0
    0.5166    1.0732    0.2830 H   0  0  0  0  0  0  0  0  0  0  0  0
    0.5500   -0.6533    0.6855 H   0  0  0  0  0  0  0  0  0  0  0  0
    2.8215    0.9239   -0.6720 H   0  0  0  0  0  0  0  0  0  0  0  0
    2.8240   -0.7998   -0.4374 H   0  0  0  0  0  0  0  0  0  0  0  0
    3.9517    1.3453    5.0178 H   0  0  0  0  0  0  0  0  0  0  0  0
    3.2424    3.0461    3.2775 H   0  0  0  0  0  0  0  0  0  0  0  0
    3.1054   -2.1054    0.9317 H   0  0  0  0  0  0  0  0  0  0  0  0
  1  2  1  0  0  0  0
  1 11  1  0  0  0  0
  1 12  1  0  0  0  0
  1 13  1  0  0  0  0
  2  3  1  0  0  0  0
  2 14  1  0  0  0  0
  2 15  1  0  0  0  0
  3  4  2  0  0  0  0
  3  9  1  0  0  0  0
  4  5  1  0  0  0  0
  4 10  1  0  0  0  0
  5  6  2  0  0  0  0
  5  7  1  0  0  0  0
  7  8  2  0  0  0  0
  7 16  1  0  0  0  0
  8  9  1  0  0  0  0
  8 17  1  0  0  0  0
 10 18  1  0  0  0  0
M  END
$$$$
