
 OpenBabel07122215493D

 33 32  0  0  0  0  0  0  0  0999 V2000
    1.0518    0.0300   -0.0033 C   0  0  0  0  0  0  0  0  0  0  0  0
    2.5692    0.0354   -0.0122 C   0  0  0  0  0  0  0  0  0  0  0  0
    3.0981    0.7864   -1.2280 C   0  0  0  0  0  0  0  0  0  0  0  0
    4.6209    0.7935   -1.2396 C   0  0  0  0  0  0  0  0  0  0  0  0
    5.1390    1.5460   -2.4578 C   0  0  0  0  0  0  0  0  0  0  0  0
    6.6606    1.5537   -2.4702 C   0  0  0  0  0  0  0  0  0  0  0  0
    7.1790    2.3061   -3.6881 C   0  0  0  0  0  0  0  0  0  0  0  0
    8.7016    2.3128   -3.6989 C   0  0  0  0  0  0  0  0  0  0  0  0
    9.2306    3.0620   -4.9136 C   0  0  0  0  0  0  0  0  0  0  0  0
   10.7505    3.0672   -4.9257 C   0  0  0  0  0  0  0  0  0  0  0  0
   11.2181    3.7762   -6.0641 O   0  0  0  0  0  0  0  0  0  0  0  0
    0.6796   -0.5103    0.8714 H   0  0  0  0  0  0  0  0  0  0  0  0
    0.6599   -0.4580   -0.9015 H   0  0  0  0  0  0  0  0  0  0  0  0
    0.6599    1.0516    0.0308 H   0  0  0  0  0  0  0  0  0  0  0  0
    2.9389   -0.9966   -0.0212 H   0  0  0  0  0  0  0  0  0  0  0  0
    2.9389    0.5056    0.9066 H   0  0  0  0  0  0  0  0  0  0  0  0
    2.7253    1.8180   -1.2190 H   0  0  0  0  0  0  0  0  0  0  0  0
    2.7253    0.3164   -2.1465 H   0  0  0  0  0  0  0  0  0  0  0  0
    4.9983   -0.2363   -1.2524 H   0  0  0  0  0  0  0  0  0  0  0  0
    4.9983    1.2660   -0.3245 H   0  0  0  0  0  0  0  0  0  0  0  0
    4.7630    2.5764   -2.4463 H   0  0  0  0  0  0  0  0  0  0  0  0
    4.7630    1.0743   -3.3741 H   0  0  0  0  0  0  0  0  0  0  0  0
    7.0366    0.5232   -2.4818 H   0  0  0  0  0  0  0  0  0  0  0  0
    7.0366    2.0253   -1.5539 H   0  0  0  0  0  0  0  0  0  0  0  0
    6.8018    3.3360   -3.6756 H   0  0  0  0  0  0  0  0  0  0  0  0
    6.8018    1.8336   -4.6034 H   0  0  0  0  0  0  0  0  0  0  0  0
    9.0741    1.2811   -3.7079 H   0  0  0  0  0  0  0  0  0  0  0  0
    9.0743    2.7832   -2.7807 H   0  0  0  0  0  0  0  0  0  0  0  0
    8.8585    4.0942   -4.9175 H   0  0  0  0  0  0  0  0  0  0  0  0
    8.8539    2.6031   -5.8362 H   0  0  0  0  0  0  0  0  0  0  0  0
   11.1490    2.0481   -4.9609 H   0  0  0  0  0  0  0  0  0  0  0  0
   11.1432    3.5588   -4.0307 H   0  0  0  0  0  0  0  0  0  0  0  0
   10.8672    3.3283   -6.8496 H   0  0  0  0  0  0  0  0  0  0  0  0
  1  2  1  0  0  0  0
  1 12  1  0  0  0  0
  1 13  1  0  0  0  0
  1 14  1  0  0  0  0
  2  3  1  0  0  0  0
  2 15  1  0  0  0  0
  2 16  1  0  0  0  0
  3  4  1  0  0  0  0
  3 17  1  0  0  0  0
  3 18  1  0  0  0  0
  4  5  1  0  0  0  0
  4 19  1  0  0  0  0
  4 20  1  0  0  0  0
  5  6  1  0  0  0  0
  5 21  1  0  0  0  0
  5 22  1  0  0  0  0
  6  7  1  0  0  0  0
  6 23  1  0  0  0  0
  6 24  1  0  0  0  0
  7  8  1  0  0  0  0
  7 25  1  0  0  0  0
  7 26  1  0  0  0  0
  8  9  1  0  0  0  0
  8 27  1  0  0  0  0
  8 28  1  0  0  0  0
  9 10  1  0  0  0  0
  9 29  1  0  0  0  0
  9 30  1  0  0  0  0
 10 11  1  0  0  0  0
 10 31  1  0  0  0  0
 10 32  1  0  0  0  0
 11 33  1  0  0  0  0
M  END
$$$$
