
 OpenBabel07222214433D

 27 26  0  0  0  0  0  0  0  0999 V2000
    0.9105    0.0339   -0.0909 C   0  0  0  0  0  0  0  0  0  0  0  0
    2.4243    0.0448   -0.0944 C   0  0  0  0  0  0  0  0  0  0  0  0
    2.9878   -0.7792    1.0649 C   0  0  0  0  0  0  0  0  0  0  0  0
    4.5201   -0.7689    1.0960 C   0  0  0  0  0  0  0  0  0  0  0  0
    5.1715    0.9504    1.2397 S   0  0  0  0  0  0  0  0  0  0  0  0
    5.0533   -1.6580    2.2280 C   0  0  0  0  0  0  0  0  0  0  0  0
    6.5771   -1.7036    2.2212 C   0  0  0  0  0  0  0  0  0  0  0  0
    7.0561   -2.5434    3.2755 O   0  0  0  0  0  0  0  0  0  0  0  0
    8.3870   -2.6685    3.4994 C   0  0  0  0  0  0  0  0  0  0  0  0
    9.3582   -1.9691    2.5836 C   0  0  0  0  0  0  0  0  0  0  0  0
    8.7972   -3.3579    4.4327 O   0  0  0  0  0  0  0  0  0  0  0  0
    0.5337    0.6528   -0.9102 H   0  0  0  0  0  0  0  0  0  0  0  0
    0.5270    0.4406    0.8502 H   0  0  0  0  0  0  0  0  0  0  0  0
    0.5273   -0.9824   -0.2152 H   0  0  0  0  0  0  0  0  0  0  0  0
    2.7485    1.0876   -0.0263 H   0  0  0  0  0  0  0  0  0  0  0  0
    2.7997   -0.3496   -1.0460 H   0  0  0  0  0  0  0  0  0  0  0  0
    2.6391   -1.8162    0.9608 H   0  0  0  0  0  0  0  0  0  0  0  0
    2.5859   -0.4153    2.0194 H   0  0  0  0  0  0  0  0  0  0  0  0
    4.8874   -1.1651    0.1411 H   0  0  0  0  0  0  0  0  0  0  0  0
    4.6033    1.2459    2.4186 H   0  0  0  0  0  0  0  0  0  0  0  0
    4.6670   -2.6806    2.1132 H   0  0  0  0  0  0  0  0  0  0  0  0
    4.6850   -1.3191    3.2050 H   0  0  0  0  0  0  0  0  0  0  0  0
    6.9795   -0.7009    2.3834 H   0  0  0  0  0  0  0  0  0  0  0  0
    6.9166   -2.1066    1.2608 H   0  0  0  0  0  0  0  0  0  0  0  0
    8.9034   -1.3744    1.7930 H   0  0  0  0  0  0  0  0  0  0  0  0
    9.9840   -2.7217    2.0965 H   0  0  0  0  0  0  0  0  0  0  0  0
    9.9792   -1.2923    3.1769 H   0  0  0  0  0  0  0  0  0  0  0  0
  1  2  1  0  0  0  0
  1 12  1  0  0  0  0
  1 13  1  0  0  0  0
  1 14  1  0  0  0  0
  2  3  1  0  0  0  0
  2 15  1  0  0  0  0
  2 16  1  0  0  0  0
  3  4  1  0  0  0  0
  3 17  1  0  0  0  0
  3 18  1  0  0  0  0
  4  5  1  0  0  0  0
  4  6  1  0  0  0  0
  4 19  1  0  0  0  0
  5 20  1  0  0  0  0
  6  7  1  0  0  0  0
  6 21  1  0  0  0  0
  6 22  1  0  0  0  0
  7  8  1  0  0  0  0
  7 23  1  0  0  0  0
  7 24  1  0  0  0  0
  8  9  1  0  0  0  0
  9 10  1  0  0  0  0
  9 11  2  0  0  0  0
 10 25  1  0  0  0  0
 10 26  1  0  0  0  0
 10 27  1  0  0  0  0
M  END
$$$$
