
 OpenBabel07222214433D

 14 13  0  0  0  0  0  0  0  0999 V2000
    0.9541   -0.0763    0.0830 C   0  0  0  0  0  0  0  0  0  0  0  0
    2.4763   -0.0101    0.0464 C   0  0  0  0  0  0  0  0  0  0  0  0
    3.0077   -1.0073   -0.9831 C   0  0  0  0  0  0  0  0  0  0  0  0
    3.0569    1.3695   -0.2407 C   0  0  0  0  0  0  0  0  0  0  0  0
    2.1825    2.3721   -0.4559 O   0  0  0  0  0  0  0  0  0  0  0  0
    4.2646    1.5773   -0.2794 O   0  0  0  0  0  0  0  0  0  0  0  0
    0.6073   -1.0882    0.3156 H   0  0  0  0  0  0  0  0  0  0  0  0
    0.5267    0.2104   -0.8843 H   0  0  0  0  0  0  0  0  0  0  0  0
    0.5542    0.5966    0.8488 H   0  0  0  0  0  0  0  0  0  0  0  0
    2.8444   -0.2973    1.0404 H   0  0  0  0  0  0  0  0  0  0  0  0
    2.6756   -0.7416   -1.9927 H   0  0  0  0  0  0  0  0  0  0  0  0
    2.6571   -2.0220   -0.7646 H   0  0  0  0  0  0  0  0  0  0  0  0
    4.1029   -1.0285   -0.9901 H   0  0  0  0  0  0  0  0  0  0  0  0
    1.2339    2.1604   -0.4187 H   0  0  0  0  0  0  0  0  0  0  0  0
  1  2  1  0  0  0  0
  1  7  1  0  0  0  0
  1  8  1  0  0  0  0
  1  9  1  0  0  0  0
  2  3  1  0  0  0  0
  2  4  1  0  0  0  0
  2 10  1  0  0  0  0
  3 11  1  0  0  0  0
  3 12  1  0  0  0  0
  3 13  1  0  0  0  0
  4  5  1  0  0  0  0
  4  6  2  0  0  0  0
  5 14  1  0  0  0  0
M  END
$$$$
