
 OpenBabel07122215493D

 22 21  0  0  0  0  0  0  0  0999 V2000
    0.9043   -0.0327   -0.0335 C   0  0  0  0  0  0  0  0  0  0  0  0
    2.4215   -0.0400   -0.0399 C   0  0  0  0  0  0  0  0  0  0  0  0
    2.9478   -1.1161   -0.9826 C   0  0  0  0  0  0  0  0  0  0  0  0
    4.4709   -1.1277   -0.9928 C   0  0  0  0  0  0  0  0  0  0  0  0
    4.9962   -2.2042   -1.9358 C   0  0  0  0  0  0  0  0  0  0  0  0
    6.5182   -2.2109   -1.9417 C   0  0  0  0  0  0  0  0  0  0  0  0
    7.0507   -3.2686   -2.8682 C   0  0  0  0  0  0  0  0  0  0  0  0
    8.2531   -3.4588   -3.0348 O   0  0  0  0  0  0  0  0  0  0  0  0
    0.5308    0.7403    0.6436 H   0  0  0  0  0  0  0  0  0  0  0  0
    0.5139   -1.0000    0.2985 H   0  0  0  0  0  0  0  0  0  0  0  0
    0.5139    0.1691   -1.0361 H   0  0  0  0  0  0  0  0  0  0  0  0
    2.7913   -0.2197    0.9764 H   0  0  0  0  0  0  0  0  0  0  0  0
    2.7913    0.9438   -0.3518 H   0  0  0  0  0  0  0  0  0  0  0  0
    2.5730   -0.9353   -1.9976 H   0  0  0  0  0  0  0  0  0  0  0  0
    2.5730   -2.0985   -0.6697 H   0  0  0  0  0  0  0  0  0  0  0  0
    4.8457   -1.3091    0.0220 H   0  0  0  0  0  0  0  0  0  0  0  0
    4.8457   -0.1456   -1.3061 H   0  0  0  0  0  0  0  0  0  0  0  0
    4.6184   -2.0275   -2.9509 H   0  0  0  0  0  0  0  0  0  0  0  0
    4.6184   -3.1872   -1.6271 H   0  0  0  0  0  0  0  0  0  0  0  0
    6.8970   -2.4154   -0.9348 H   0  0  0  0  0  0  0  0  0  0  0  0
    6.8970   -1.2398   -2.2769 H   0  0  0  0  0  0  0  0  0  0  0  0
    6.3063   -3.8807   -3.4044 H   0  0  0  0  0  0  0  0  0  0  0  0
  1  2  1  0  0  0  0
  1  9  1  0  0  0  0
  1 10  1  0  0  0  0
  1 11  1  0  0  0  0
  2  3  1  0  0  0  0
  2 12  1  0  0  0  0
  2 13  1  0  0  0  0
  3  4  1  0  0  0  0
  3 14  1  0  0  0  0
  3 15  1  0  0  0  0
  4  5  1  0  0  0  0
  4 16  1  0  0  0  0
  4 17  1  0  0  0  0
  5  6  1  0  0  0  0
  5 18  1  0  0  0  0
  5 19  1  0  0  0  0
  6  7  1  0  0  0  0
  6 20  1  0  0  0  0
  6 21  1  0  0  0  0
  7  8  2  0  0  0  0
  7 22  1  0  0  0  0
M  END
$$$$
