
 OpenBabel07202215583D

 32 31  0  0  0  0  0  0  0  0999 V2000
    0.9754   -0.0550   -0.0781 C   0  0  0  0  0  0  0  0  0  0  0  0
    2.4920   -0.0626   -0.0749 C   0  0  0  0  0  0  0  0  0  0  0  0
    3.0179   -1.3801    0.4802 C   0  0  0  0  0  0  0  0  0  0  0  0
    4.5402   -1.3902    0.4844 C   0  0  0  0  0  0  0  0  0  0  0  0
    5.0640   -2.7074    1.0394 C   0  0  0  0  0  0  0  0  0  0  0  0
    6.5900   -2.7170    1.0435 C   0  0  0  0  0  0  0  0  0  0  0  0
    7.1071   -4.0367    1.5994 C   0  0  0  0  0  0  0  0  0  0  0  0
    8.6342   -4.1006    1.6264 C   0  0  0  0  0  0  0  0  0  0  0  0
    9.0827   -5.4332    2.1878 C   0  0  0  0  0  0  0  0  0  0  0  0
    8.3256   -6.3216    2.5621 O   0  0  0  0  0  0  0  0  0  0  0  0
   10.4420   -5.5175    2.2233 O   0  0  0  0  0  0  0  0  0  0  0  0
   10.9192   -6.7623    2.7478 C   0  0  0  0  0  0  0  0  0  0  0  0
    0.6014    0.8917   -0.4769 H   0  0  0  0  0  0  0  0  0  0  0  0
    0.5858   -0.1800    0.9373 H   0  0  0  0  0  0  0  0  0  0  0  0
    0.5858   -0.8689   -0.6978 H   0  0  0  0  0  0  0  0  0  0  0  0
    2.8621    0.7724    0.5315 H   0  0  0  0  0  0  0  0  0  0  0  0
    2.8621    0.0868   -1.0959 H   0  0  0  0  0  0  0  0  0  0  0  0
    2.6440   -2.2146   -0.1259 H   0  0  0  0  0  0  0  0  0  0  0  0
    2.6440   -1.5293    1.5008 H   0  0  0  0  0  0  0  0  0  0  0  0
    4.9149   -0.5575    1.0920 H   0  0  0  0  0  0  0  0  0  0  0  0
    4.9149   -1.2433   -0.5358 H   0  0  0  0  0  0  0  0  0  0  0  0
    4.6865   -3.5403    0.4329 H   0  0  0  0  0  0  0  0  0  0  0  0
    4.6865   -2.8552    2.0591 H   0  0  0  0  0  0  0  0  0  0  0  0
    6.9613   -1.8834    1.6512 H   0  0  0  0  0  0  0  0  0  0  0  0
    6.9613   -2.5697    0.0224 H   0  0  0  0  0  0  0  0  0  0  0  0
    6.7163   -4.8636    0.9927 H   0  0  0  0  0  0  0  0  0  0  0  0
    6.7163   -4.1802    2.6150 H   0  0  0  0  0  0  0  0  0  0  0  0
    9.0274   -3.2935    2.2546 H   0  0  0  0  0  0  0  0  0  0  0  0
    9.0274   -3.9864    0.6100 H   0  0  0  0  0  0  0  0  0  0  0  0
   12.0127   -6.7466    2.7411 H   0  0  0  0  0  0  0  0  0  0  0  0
   10.5844   -7.5981    2.1236 H   0  0  0  0  0  0  0  0  0  0  0  0
   10.5844   -6.8995    3.7817 H   0  0  0  0  0  0  0  0  0  0  0  0
  1  2  1  0  0  0  0
  1 13  1  0  0  0  0
  1 14  1  0  0  0  0
  1 15  1  0  0  0  0
  2  3  1  0  0  0  0
  2 16  1  0  0  0  0
  2 17  1  0  0  0  0
  3  4  1  0  0  0  0
  3 18  1  0  0  0  0
  3 19  1  0  0  0  0
  4  5  1  0  0  0  0
  4 20  1  0  0  0  0
  4 21  1  0  0  0  0
  5  6  1  0  0  0  0
  5 22  1  0  0  0  0
  5 23  1  0  0  0  0
  6  7  1  0  0  0  0
  6 24  1  0  0  0  0
  6 25  1  0  0  0  0
  7  8  1  0  0  0  0
  7 26  1  0  0  0  0
  7 27  1  0  0  0  0
  8  9  1  0  0  0  0
  8 28  1  0  0  0  0
  8 29  1  0  0  0  0
  9 10  2  0  0  0  0
  9 11  1  0  0  0  0
 11 12  1  0  0  0  0
 12 30  1  0  0  0  0
 12 31  1  0  0  0  0
 12 32  1  0  0  0  0
M  END
$$$$
