
 OpenBabel07122215493D

 17 17  0  0  0  0  0  0  0  0999 V2000
    1.0260   -0.1647    0.0443 C   0  0  0  0  0  0  0  0  0  0  0  0
    2.4465   -0.1379    0.0606 O   0  0  0  0  0  0  0  0  0  0  0  0
    3.0484    1.0941    0.0543 C   0  0  0  0  0  0  0  0  0  0  0  0
    4.4492    1.0276    0.0369 C   0  0  0  0  0  0  0  0  0  0  0  0
    5.2223    2.1908    0.0162 C   0  0  0  0  0  0  0  0  0  0  0  0
    4.6008    3.4349    0.0143 C   0  0  0  0  0  0  0  0  0  0  0  0
    3.2082    3.5185    0.0414 C   0  0  0  0  0  0  0  0  0  0  0  0
    2.4353    2.3528    0.0636 C   0  0  0  0  0  0  0  0  0  0  0  0
    1.0732    2.4859    0.0963 O   0  0  0  0  0  0  0  0  0  0  0  0
    0.7053   -1.2100    0.0313 H   0  0  0  0  0  0  0  0  0  0  0  0
    0.6320    0.3037   -0.8641 H   0  0  0  0  0  0  0  0  0  0  0  0
    0.6153    0.2853    0.9542 H   0  0  0  0  0  0  0  0  0  0  0  0
    4.9418    0.0582    0.0380 H   0  0  0  0  0  0  0  0  0  0  0  0
    6.3073    2.1213    0.0002 H   0  0  0  0  0  0  0  0  0  0  0  0
    5.1987    4.3424   -0.0070 H   0  0  0  0  0  0  0  0  0  0  0  0
    2.7415    4.4979    0.0437 H   0  0  0  0  0  0  0  0  0  0  0  0
    0.8368    3.4249    0.1233 H   0  0  0  0  0  0  0  0  0  0  0  0
  1  2  1  0  0  0  0
  1 10  1  0  0  0  0
  1 11  1  0  0  0  0
  1 12  1  0  0  0  0
  2  3  1  0  0  0  0
  3  4  1  0  0  0  0
  3  8  2  0  0  0  0
  4  5  2  0  0  0  0
  4 13  1  0  0  0  0
  5  6  1  0  0  0  0
  5 14  1  0  0  0  0
  6  7  2  0  0  0  0
  6 15  1  0  0  0  0
  7  8  1  0  0  0  0
  7 16  1  0  0  0  0
  8  9  1  0  0  0  0
  9 17  1  0  0  0  0
M  END
$$$$
