
 OpenBabel07222214433D

 30 30  0  0  0  0  0  0  0  0999 V2000
    0.9261    0.0835   -0.0407 C   0  0  0  0  0  0  0  0  0  0  0  0
    2.4645    0.0823   -0.0467 C   0  0  0  0  0  0  0  0  0  0  0  0
    2.9526    1.5070    0.3028 C   0  0  0  0  0  0  0  0  0  0  0  0
    2.9833   -0.8610    1.0595 C   0  0  0  0  0  0  0  0  0  0  0  0
    2.9669   -0.3854   -1.4183 C   0  0  0  0  0  0  0  0  0  0  0  0
    2.8223   -1.7222   -1.8278 C   0  0  0  0  0  0  0  0  0  0  0  0
    3.3534   -2.1662   -3.0442 C   0  0  0  0  0  0  0  0  0  0  0  0
    3.9579   -1.2668   -3.9207 C   0  0  0  0  0  0  0  0  0  0  0  0
    4.3644   -1.7766   -5.1260 O   0  0  0  0  0  0  0  0  0  0  0  0
    4.8369   -0.8087   -6.0590 C   0  0  0  0  0  0  0  0  0  0  0  0
    5.1325   -1.4794   -7.3723 C   0  0  0  0  0  0  0  0  0  0  0  0
    5.6046   -0.8745   -8.3378 O   0  0  0  0  0  0  0  0  0  0  0  0
    4.0903    0.0634   -3.5357 C   0  0  0  0  0  0  0  0  0  0  0  0
    3.6025    0.4943   -2.3046 C   0  0  0  0  0  0  0  0  0  0  0  0
    0.5365    0.4217    0.9263 H   0  0  0  0  0  0  0  0  0  0  0  0
    0.5172   -0.9158   -0.2280 H   0  0  0  0  0  0  0  0  0  0  0  0
    0.5287    0.7513   -0.8141 H   0  0  0  0  0  0  0  0  0  0  0  0
    2.6104    1.8230    1.2930 H   0  0  0  0  0  0  0  0  0  0  0  0
    2.5777    2.2487   -0.4130 H   0  0  0  0  0  0  0  0  0  0  0  0
    4.0491    1.5581    0.2992 H   0  0  0  0  0  0  0  0  0  0  0  0
    2.6458   -0.5330    2.0489 H   0  0  0  0  0  0  0  0  0  0  0  0
    4.0795   -0.8885    1.0695 H   0  0  0  0  0  0  0  0  0  0  0  0
    2.6315   -1.8900    0.9297 H   0  0  0  0  0  0  0  0  0  0  0  0
    2.2946   -2.4401   -1.2029 H   0  0  0  0  0  0  0  0  0  0  0  0
    3.2868   -3.2205   -3.3001 H   0  0  0  0  0  0  0  0  0  0  0  0
    5.7726   -0.3688   -5.6977 H   0  0  0  0  0  0  0  0  0  0  0  0
    4.0737   -0.0442   -6.2507 H   0  0  0  0  0  0  0  0  0  0  0  0
    4.8910   -2.5507   -7.4421 H   0  0  0  0  0  0  0  0  0  0  0  0
    4.5749    0.8074   -4.1580 H   0  0  0  0  0  0  0  0  0  0  0  0
    3.7405    1.5450   -2.0689 H   0  0  0  0  0  0  0  0  0  0  0  0
  1  2  1  0  0  0  0
  1 15  1  0  0  0  0
  1 16  1  0  0  0  0
  1 17  1  0  0  0  0
  2  3  1  0  0  0  0
  2  4  1  0  0  0  0
  2  5  1  0  0  0  0
  3 18  1  0  0  0  0
  3 19  1  0  0  0  0
  3 20  1  0  0  0  0
  4 21  1  0  0  0  0
  4 22  1  0  0  0  0
  4 23  1  0  0  0  0
  5  6  1  0  0  0  0
  5 14  2  0  0  0  0
  6  7  2  0  0  0  0
  6 24  1  0  0  0  0
  7  8  1  0  0  0  0
  7 25  1  0  0  0  0
  8  9  1  0  0  0  0
  8 13  2  0  0  0  0
  9 10  1  0  0  0  0
 10 11  1  0  0  0  0
 10 26  1  0  0  0  0
 10 27  1  0  0  0  0
 11 12  2  0  0  0  0
 11 28  1  0  0  0  0
 13 14  1  0  0  0  0
 13 29  1  0  0  0  0
 14 30  1  0  0  0  0
M  END
$$$$
