
 OpenBabel07202215583D

 24 23  0  0  0  0  0  0  0  0999 V2000
    0.9190    0.0906    0.0657 C   0  0  0  0  0  0  0  0  0  0  0  0
    2.4372    0.1126    0.0980 C   0  0  0  0  0  0  0  0  0  0  0  0
    2.9868   -0.6781   -1.0636 C   0  0  0  0  0  0  0  0  0  0  0  0
    4.5202   -0.6987   -1.0939 C   0  0  0  0  0  0  0  0  0  0  0  0
    4.9075   -1.5169   -2.2958 C   0  0  0  0  0  0  0  0  0  0  0  0
    4.0009   -1.9868   -2.9862 O   0  0  0  0  0  0  0  0  0  0  0  0
    6.3593   -1.7301   -2.6090 C   0  0  0  0  0  0  0  0  0  0  0  0
    6.7080   -2.5607   -3.8293 C   0  0  0  0  0  0  0  0  0  0  0  0
    5.6762   -3.1836   -4.7444 C   0  0  0  0  0  0  0  0  0  0  0  0
    7.9052   -2.7410   -4.0942 O   0  0  0  0  0  0  0  0  0  0  0  0
    0.5198    0.6625    0.9059 H   0  0  0  0  0  0  0  0  0  0  0  0
    0.5401   -0.9352    0.1326 H   0  0  0  0  0  0  0  0  0  0  0  0
    0.5401    0.5291   -0.8642 H   0  0  0  0  0  0  0  0  0  0  0  0
    2.7967   -0.3219    1.0357 H   0  0  0  0  0  0  0  0  0  0  0  0
    2.7967    1.1443    0.0377 H   0  0  0  0  0  0  0  0  0  0  0  0
    2.6047   -0.2552   -2.0051 H   0  0  0  0  0  0  0  0  0  0  0  0
    2.6047   -1.7091   -1.0154 H   0  0  0  0  0  0  0  0  0  0  0  0
    4.9190   -1.1676   -0.1892 H   0  0  0  0  0  0  0  0  0  0  0  0
    4.9190    0.3149   -1.1983 H   0  0  0  0  0  0  0  0  0  0  0  0
    6.8271   -2.2148   -1.7422 H   0  0  0  0  0  0  0  0  0  0  0  0
    6.8271   -0.7459   -2.7421 H   0  0  0  0  0  0  0  0  0  0  0  0
    4.6351   -3.0256   -4.5122 H   0  0  0  0  0  0  0  0  0  0  0  0
    5.8036   -4.2675   -4.7331 H   0  0  0  0  0  0  0  0  0  0  0  0
    5.8036   -2.7756   -5.7487 H   0  0  0  0  0  0  0  0  0  0  0  0
  1  2  1  0  0  0  0
  1 11  1  0  0  0  0
  1 12  1  0  0  0  0
  1 13  1  0  0  0  0
  2  3  1  0  0  0  0
  2 14  1  0  0  0  0
  2 15  1  0  0  0  0
  3  4  1  0  0  0  0
  3 16  1  0  0  0  0
  3 17  1  0  0  0  0
  4  5  1  0  0  0  0
  4 18  1  0  0  0  0
  4 19  1  0  0  0  0
  5  6  2  0  0  0  0
  5  7  1  0  0  0  0
  7  8  1  0  0  0  0
  7 20  1  0  0  0  0
  7 21  1  0  0  0  0
  8  9  1  0  0  0  0
  8 10  2  0  0  0  0
  9 22  1  0  0  0  0
  9 23  1  0  0  0  0
  9 24  1  0  0  0  0
M  END
$$$$
