
 OpenBabel07122215493D

 31 30  0  0  0  0  0  0  0  0999 V2000
    0.9130    0.0591   -0.0485 C   0  0  0  0  0  0  0  0  0  0  0  0
    2.4292    0.0529   -0.0529 C   0  0  0  0  0  0  0  0  0  0  0  0
    2.9533   -1.1114   -0.8821 C   0  0  0  0  0  0  0  0  0  0  0  0
    4.4741   -1.1204   -0.8885 C   0  0  0  0  0  0  0  0  0  0  0  0
    4.9900   -2.2858   -1.7184 C   0  0  0  0  0  0  0  0  0  0  0  0
    6.5107   -2.2939   -1.7242 C   0  0  0  0  0  0  0  0  0  0  0  0
    7.0282   -3.4589   -2.5538 C   0  0  0  0  0  0  0  0  0  0  0  0
    8.5506   -3.4728   -2.5637 C   0  0  0  0  0  0  0  0  0  0  0  0
    9.0639   -4.6391   -3.3943 C   0  0  0  0  0  0  0  0  0  0  0  0
   10.5665   -4.6657   -3.4133 C   0  0  0  0  0  0  0  0  0  0  0  0
   11.2058   -5.5206   -4.0221 O   0  0  0  0  0  0  0  0  0  0  0  0
    0.5391    0.8958    0.5474 H   0  0  0  0  0  0  0  0  0  0  0  0
    0.5238   -0.8707    0.3784 H   0  0  0  0  0  0  0  0  0  0  0  0
    0.5238    0.1584   -1.0668 H   0  0  0  0  0  0  0  0  0  0  0  0
    2.8000   -0.0247    0.9758 H   0  0  0  0  0  0  0  0  0  0  0  0
    2.8000    0.9997   -0.4627 H   0  0  0  0  0  0  0  0  0  0  0  0
    2.5802   -1.0345   -1.9109 H   0  0  0  0  0  0  0  0  0  0  0  0
    2.5802   -2.0585   -0.4730 H   0  0  0  0  0  0  0  0  0  0  0  0
    4.8510   -1.2008    0.1384 H   0  0  0  0  0  0  0  0  0  0  0  0
    4.8510   -0.1762   -1.3002 H   0  0  0  0  0  0  0  0  0  0  0  0
    4.6139   -2.2067   -2.7460 H   0  0  0  0  0  0  0  0  0  0  0  0
    4.6139   -3.2310   -1.3077 H   0  0  0  0  0  0  0  0  0  0  0  0
    6.8850   -2.3727   -0.6962 H   0  0  0  0  0  0  0  0  0  0  0  0
    6.8850   -1.3482   -2.1348 H   0  0  0  0  0  0  0  0  0  0  0  0
    6.6494   -3.3783   -3.5802 H   0  0  0  0  0  0  0  0  0  0  0  0
    6.6494   -4.4025   -2.1421 H   0  0  0  0  0  0  0  0  0  0  0  0
    8.9289   -3.5472   -1.5363 H   0  0  0  0  0  0  0  0  0  0  0  0
    8.9289   -2.5262   -2.9701 H   0  0  0  0  0  0  0  0  0  0  0  0
    8.7089   -4.5503   -4.4263 H   0  0  0  0  0  0  0  0  0  0  0  0
    8.7089   -5.5853   -2.9730 H   0  0  0  0  0  0  0  0  0  0  0  0
   11.0852   -3.8729   -2.8487 H   0  0  0  0  0  0  0  0  0  0  0  0
  1  2  1  0  0  0  0
  1 12  1  0  0  0  0
  1 13  1  0  0  0  0
  1 14  1  0  0  0  0
  2  3  1  0  0  0  0
  2 15  1  0  0  0  0
  2 16  1  0  0  0  0
  3  4  1  0  0  0  0
  3 17  1  0  0  0  0
  3 18  1  0  0  0  0
  4  5  1  0  0  0  0
  4 19  1  0  0  0  0
  4 20  1  0  0  0  0
  5  6  1  0  0  0  0
  5 21  1  0  0  0  0
  5 22  1  0  0  0  0
  6  7  1  0  0  0  0
  6 23  1  0  0  0  0
  6 24  1  0  0  0  0
  7  8  1  0  0  0  0
  7 25  1  0  0  0  0
  7 26  1  0  0  0  0
  8  9  1  0  0  0  0
  8 27  1  0  0  0  0
  8 28  1  0  0  0  0
  9 10  1  0  0  0  0
  9 29  1  0  0  0  0
  9 30  1  0  0  0  0
 10 11  2  0  0  0  0
 10 31  1  0  0  0  0
M  END
$$$$
