
 OpenBabel07202215583D

 19 19  0  0  0  0  0  0  0  0999 V2000
    1.1263    0.0507    0.0869 C   0  0  0  0  0  0  0  0  0  0  0  0
    2.5580    0.0359    0.0741 O   0  0  0  0  0  0  0  0  0  0  0  0
    3.1263   -0.4093    1.2232 C   0  0  0  0  0  0  0  0  0  0  0  0
    2.5258   -0.8554    2.1929 O   0  0  0  0  0  0  0  0  0  0  0  0
    4.6085   -0.3779    1.1521 C   0  0  0  0  0  0  0  0  0  0  0  0
    5.3201   -1.4835    1.6479 C   0  0  0  0  0  0  0  0  0  0  0  0
    6.7188   -1.4763    1.6706 C   0  0  0  0  0  0  0  0  0  0  0  0
    7.4155   -0.3572    1.2175 C   0  0  0  0  0  0  0  0  0  0  0  0
    6.7166    0.7524    0.7330 C   0  0  0  0  0  0  0  0  0  0  0  0
    5.3166    0.7402    0.6980 C   0  0  0  0  0  0  0  0  0  0  0  0
    4.6405    1.8449    0.2617 O   0  0  0  0  0  0  0  0  0  0  0  0
    0.7763    0.4428   -0.8734 H   0  0  0  0  0  0  0  0  0  0  0  0
    0.7502    0.7075    0.8787 H   0  0  0  0  0  0  0  0  0  0  0  0
    0.7293   -0.9624    0.2066 H   0  0  0  0  0  0  0  0  0  0  0  0
    4.7853   -2.3517    2.0278 H   0  0  0  0  0  0  0  0  0  0  0  0
    7.2640   -2.3368    2.0536 H   0  0  0  0  0  0  0  0  0  0  0  0
    8.5035   -0.3466    1.2537 H   0  0  0  0  0  0  0  0  0  0  0  0
    7.2812    1.6215    0.4069 H   0  0  0  0  0  0  0  0  0  0  0  0
    5.2660    2.5068   -0.0724 H   0  0  0  0  0  0  0  0  0  0  0  0
  1  2  1  0  0  0  0
  1 12  1  0  0  0  0
  1 13  1  0  0  0  0
  1 14  1  0  0  0  0
  2  3  1  0  0  0  0
  3  4  2  0  0  0  0
  3  5  1  0  0  0  0
  5  6  1  0  0  0  0
  5 10  2  0  0  0  0
  6  7  2  0  0  0  0
  6 15  1  0  0  0  0
  7  8  1  0  0  0  0
  7 16  1  0  0  0  0
  8  9  2  0  0  0  0
  8 17  1  0  0  0  0
  9 10  1  0  0  0  0
  9 18  1  0  0  0  0
 10 11  1  0  0  0  0
 11 19  1  0  0  0  0
M  END
$$$$
