
 OpenBabel07202215583D

 41 41  0  0  0  0  0  0  0  0999 V2000
    0.9961   -0.0496   -0.1300 C   0  0  0  0  0  0  0  0  0  0  0  0
    2.5114   -0.0728   -0.0675 C   0  0  0  0  0  0  0  0  0  0  0  0
    3.0019    1.0201   -0.8488 O   0  0  0  0  0  0  0  0  0  0  0  0
    3.0240    0.0156    1.3829 C   0  0  0  0  0  0  0  0  0  0  0  0
    2.5194   -1.1403    2.2471 C   0  0  0  0  0  0  0  0  0  0  0  0
    4.5518    0.0443    1.3610 C   0  0  0  0  0  0  0  0  0  0  0  0
    5.1478    0.2540    2.7415 C   0  0  0  0  0  0  0  0  0  0  0  0
    6.6849    0.2808    2.7795 C   0  0  0  0  0  0  0  0  0  0  0  0
    7.3275    0.9503    1.5471 C   0  0  0  0  0  0  0  0  0  0  0  0
    7.4918    2.3563    2.0053 C   0  0  0  0  0  0  0  0  0  0  0  0
    7.4544    2.4536    3.3360 C   0  0  0  0  0  0  0  0  0  0  0  0
    7.6546    3.7121    4.1069 C   0  0  0  0  0  0  0  0  0  0  0  0
    7.2275    1.1036    3.9992 C   0  0  0  0  0  0  0  0  0  0  0  0
    6.2760    1.1732    5.2079 C   0  0  0  0  0  0  0  0  0  0  0  0
    8.5583    0.5055    4.4802 C   0  0  0  0  0  0  0  0  0  0  0  0
    0.6561   -0.0824   -1.1676 H   0  0  0  0  0  0  0  0  0  0  0  0
    0.6126    0.8757    0.3134 H   0  0  0  0  0  0  0  0  0  0  0  0
    0.5588   -0.9003    0.3965 H   0  0  0  0  0  0  0  0  0  0  0  0
    2.8911   -0.9877   -0.5365 H   0  0  0  0  0  0  0  0  0  0  0  0
    2.7258    1.8490   -0.4214 H   0  0  0  0  0  0  0  0  0  0  0  0
    2.6820    0.9652    1.8192 H   0  0  0  0  0  0  0  0  0  0  0  0
    2.8770   -2.0960    1.8508 H   0  0  0  0  0  0  0  0  0  0  0  0
    1.4299   -1.1639    2.2979 H   0  0  0  0  0  0  0  0  0  0  0  0
    2.8563   -1.0524    3.2832 H   0  0  0  0  0  0  0  0  0  0  0  0
    4.8274    0.8975    0.7354 H   0  0  0  0  0  0  0  0  0  0  0  0
    4.9595   -0.8636    0.9019 H   0  0  0  0  0  0  0  0  0  0  0  0
    4.8377   -0.5448    3.4252 H   0  0  0  0  0  0  0  0  0  0  0  0
    4.7167    1.1846    3.1212 H   0  0  0  0  0  0  0  0  0  0  0  0
    7.0204   -0.7647    2.8270 H   0  0  0  0  0  0  0  0  0  0  0  0
    6.7462    0.9040    0.6279 H   0  0  0  0  0  0  0  0  0  0  0  0
    8.2976    0.5023    1.3127 H   0  0  0  0  0  0  0  0  0  0  0  0
    7.6522    3.1796    1.3191 H   0  0  0  0  0  0  0  0  0  0  0  0
    7.8144    4.5631    3.4363 H   0  0  0  0  0  0  0  0  0  0  0  0
    8.5316    3.6257    4.7540 H   0  0  0  0  0  0  0  0  0  0  0  0
    6.7789    3.9360    4.7218 H   0  0  0  0  0  0  0  0  0  0  0  0
    5.3200    1.6554    4.9817 H   0  0  0  0  0  0  0  0  0  0  0  0
    6.7164    1.7597    6.0217 H   0  0  0  0  0  0  0  0  0  0  0  0
    6.0645    0.1710    5.5970 H   0  0  0  0  0  0  0  0  0  0  0  0
    9.2893    0.4183    3.6697 H   0  0  0  0  0  0  0  0  0  0  0  0
    8.3990   -0.4987    4.8911 H   0  0  0  0  0  0  0  0  0  0  0  0
    9.0035    1.1211    5.2691 H   0  0  0  0  0  0  0  0  0  0  0  0
  1  2  1  0  0  0  0
  1 16  1  0  0  0  0
  1 17  1  0  0  0  0
  1 18  1  0  0  0  0
  2  3  1  0  0  0  0
  2  4  1  0  0  0  0
  2 19  1  0  0  0  0
  3 20  1  0  0  0  0
  4  5  1  0  0  0  0
  4  6  1  0  0  0  0
  4 21  1  0  0  0  0
  5 22  1  0  0  0  0
  5 23  1  0  0  0  0
  5 24  1  0  0  0  0
  6  7  1  0  0  0  0
  6 25  1  0  0  0  0
  6 26  1  0  0  0  0
  7  8  1  0  0  0  0
  7 27  1  0  0  0  0
  7 28  1  0  0  0  0
  8  9  1  0  0  0  0
  8 13  1  0  0  0  0
  8 29  1  0  0  0  0
  9 10  1  0  0  0  0
  9 30  1  0  0  0  0
  9 31  1  0  0  0  0
 10 11  2  0  0  0  0
 10 32  1  0  0  0  0
 11 12  1  0  0  0  0
 11 13  1  0  0  0  0
 12 33  1  0  0  0  0
 12 34  1  0  0  0  0
 12 35  1  0  0  0  0
 13 14  1  0  0  0  0
 13 15  1  0  0  0  0
 14 36  1  0  0  0  0
 14 37  1  0  0  0  0
 14 38  1  0  0  0  0
 15 39  1  0  0  0  0
 15 40  1  0  0  0  0
 15 41  1  0  0  0  0
M  END
$$$$
