
 OpenBabel07202215583D

 26 26  0  0  0  0  0  0  0  0999 V2000
    0.8864   -0.1029   -0.0523 C   0  0  0  0  0  0  0  0  0  0  0  0
    2.4007   -0.0941   -0.0507 C   0  0  0  0  0  0  0  0  0  0  0  0
    3.0046   -1.2898    0.7062 C   0  0  0  0  0  0  0  0  0  0  0  0
    4.5200   -1.2787    0.7092 C   0  0  0  0  0  0  0  0  0  0  0  0
    5.2708   -2.4695    0.7139 C   0  0  0  0  0  0  0  0  0  0  0  0
    6.6879   -2.4584    0.7039 C   0  0  0  0  0  0  0  0  0  0  0  0
    7.3370   -1.2180    0.6947 C   0  0  0  0  0  0  0  0  0  0  0  0
    6.5981   -0.0415    0.7215 C   0  0  0  0  0  0  0  0  0  0  0  0
    5.2133   -0.0682    0.7464 C   0  0  0  0  0  0  0  0  0  0  0  0
    8.6769   -0.9514    0.6702 O   0  0  0  0  0  0  0  0  0  0  0  0
    7.2224   -3.7205    0.7065 O   0  0  0  0  0  0  0  0  0  0  0  0
    8.6300   -3.8713    0.7110 C   0  0  0  0  0  0  0  0  0  0  0  0
    0.5148    0.7747   -0.5920 H   0  0  0  0  0  0  0  0  0  0  0  0
    0.5012   -0.0571    0.9709 H   0  0  0  0  0  0  0  0  0  0  0  0
    0.4975   -0.9998   -0.5397 H   0  0  0  0  0  0  0  0  0  0  0  0
    2.7048    0.8524    0.4088 H   0  0  0  0  0  0  0  0  0  0  0  0
    2.7725   -0.0826   -1.0830 H   0  0  0  0  0  0  0  0  0  0  0  0
    2.6429   -2.2166    0.2428 H   0  0  0  0  0  0  0  0  0  0  0  0
    2.6544   -1.2866    1.7459 H   0  0  0  0  0  0  0  0  0  0  0  0
    4.7525   -3.4291    0.7204 H   0  0  0  0  0  0  0  0  0  0  0  0
    7.1103    0.9166    0.7210 H   0  0  0  0  0  0  0  0  0  0  0  0
    4.7023    0.8866    0.7835 H   0  0  0  0  0  0  0  0  0  0  0  0
    9.2060   -1.7410    0.5768 H   0  0  0  0  0  0  0  0  0  0  0  0
    8.8805   -4.9348    0.7445 H   0  0  0  0  0  0  0  0  0  0  0  0
    9.0680   -3.4119    1.6041 H   0  0  0  0  0  0  0  0  0  0  0  0
    9.0589   -3.4764   -0.2165 H   0  0  0  0  0  0  0  0  0  0  0  0
  1  2  1  0  0  0  0
  1 13  1  0  0  0  0
  1 14  1  0  0  0  0
  1 15  1  0  0  0  0
  2  3  1  0  0  0  0
  2 16  1  0  0  0  0
  2 17  1  0  0  0  0
  3  4  1  0  0  0  0
  3 18  1  0  0  0  0
  3 19  1  0  0  0  0
  4  5  2  0  0  0  0
  4  9  1  0  0  0  0
  5  6  1  0  0  0  0
  5 20  1  0  0  0  0
  6  7  2  0  0  0  0
  6 11  1  0  0  0  0
  7  8  1  0  0  0  0
  7 10  1  0  0  0  0
  8  9  2  0  0  0  0
  8 21  1  0  0  0  0
  9 22  1  0  0  0  0
 10 23  1  0  0  0  0
 11 12  1  0  0  0  0
 12 24  1  0  0  0  0
 12 25  1  0  0  0  0
 12 26  1  0  0  0  0
M  END
$$$$
