
 OpenBabel07222214443D

 48 51  0  0  1  0  0  0  0  0999 V2000
    0.9165    0.2004   -0.0937 C   0  0  0  0  0  0  0  0  0  0  0  0
    2.4379    0.3392    0.0522 C   0  0  2  0  0  0  0  0  0  0  0  0
    2.9156   -0.1302    1.4422 C   0  0  0  0  0  0  0  0  0  0  0  0
    2.5239   -1.4952    1.7954 C   0  0  0  0  0  0  0  0  0  0  0  0
    3.2468   -2.4366    0.8469 C   0  0  1  0  0  0  0  0  0  0  0  0
    2.9943   -1.9421   -0.6765 C   0  0  1  0  0  0  0  0  0  0  0  0
    3.1987   -3.1163   -1.6949 C   0  0  0  0  0  0  0  0  0  0  0  0
    2.6464   -4.4940   -1.3059 C   0  0  0  0  0  0  0  0  0  0  0  0
    3.2127   -4.9651   -0.0107 C   0  0  1  0  0  0  0  0  0  0  0  0
    4.6164   -5.5588   -0.0381 C   0  0  0  0  0  0  0  0  0  0  0  0
    4.5740   -6.3071    1.2576 C   0  0  0  0  0  0  0  0  0  0  0  0
    4.3280   -7.5436    1.4835 O   0  0  0  0  0  0  0  0  0  0  0  0
    4.3238   -5.3924    2.3087 C   0  0  0  0  0  0  0  0  0  0  0  0
    2.5512   -5.0857    2.0086 C   0  0  0  0  0  0  0  0  0  0  0  0
    2.8466   -3.8713    1.2581 C   0  0  2  0  0  0  0  0  0  0  0  0
    3.1287   -3.6558    3.1330 C   0  0  0  0  0  0  0  0  0  0  0  0
    3.3255   -0.2254   -1.1544 C   0  0  2  0  0  0  0  0  0  0  0  0
    4.2397    1.3317   -1.3631 C   0  0  0  0  0  0  0  0  0  0  0  0
    4.2265    1.7816    0.0303 C   0  0  0  0  0  0  0  0  0  0  0  0
    2.8903    1.7535    0.2266 C   0  0  0  0  0  0  0  0  0  0  0  0
    0.5211   -0.7835    0.1874 H   0  0  0  0  0  0  0  0  0  0  0  0
    0.5816    0.3862   -1.1172 H   0  0  0  0  0  0  0  0  0  0  0  0
    0.4261    0.9055    0.5822 H   0  0  0  0  0  0  0  0  0  0  0  0
    2.5774    0.5483    2.2339 H   0  0  0  0  0  0  0  0  0  0  0  0
    4.0138   -0.1607    1.5285 H   0  0  0  0  0  0  0  0  0  0  0  0
    1.4409   -1.6493    1.8368 H   0  0  0  0  0  0  0  0  0  0  0  0
    2.8932   -1.5620    2.8173 H   0  0  0  0  0  0  0  0  0  0  0  0
    4.3317   -2.3395    0.9526 H   0  0  0  0  0  0  0  0  0  0  0  0
    1.8878   -1.9313   -0.7358 H   0  0  0  0  0  0  0  0  0  0  0  0
    4.2657   -3.2465   -1.8404 H   0  0  0  0  0  0  0  0  0  0  0  0
    2.7003   -2.9089   -2.6466 H   0  0  0  0  0  0  0  0  0  0  0  0
    2.9118   -5.2700   -2.0427 H   0  0  0  0  0  0  0  0  0  0  0  0
    1.5438   -4.5505   -1.2325 H   0  0  0  0  0  0  0  0  0  0  0  0
    2.6452   -5.9289    0.0215 H   0  0  0  0  0  0  0  0  0  0  0  0
    5.2787   -4.6892   -0.0325 H   0  0  0  0  0  0  0  0  0  0  0  0
    4.8958   -6.2267   -0.8496 H   0  0  0  0  0  0  0  0  0  0  0  0
    5.0601   -4.5712    1.9911 H   0  0  0  0  0  0  0  0  0  0  0  0
    4.7358   -5.6799    3.2802 H   0  0  0  0  0  0  0  0  0  0  0  0
    1.6612   -4.7433    2.6055 H   0  0  0  0  0  0  0  0  0  0  0  0
    1.8693   -5.7331    1.4429 H   0  0  0  0  0  0  0  0  0  0  0  0
    2.2985   -3.0934    3.5840 H   0  0  0  0  0  0  0  0  0  0  0  0
    4.1311   -3.3434    3.4292 H   0  0  0  0  0  0  0  0  0  0  0  0
    2.9636   -4.5796    3.8211 H   0  0  0  0  0  0  0  0  0  0  0  0
    3.1240   -0.3550   -2.2284 H   0  0  0  0  0  0  0  0  0  0  0  0
    3.6977    2.2381   -1.8130 H   0  0  0  0  0  0  0  0  0  0  0  0
    5.2680    1.5042   -1.7203 H   0  0  0  0  0  0  0  0  0  0  0  0
    4.9711    1.0823    0.4443 H   0  0  0  0  0  0  0  0  0  0  0  0
    2.2415    2.3942   -0.3780 H   0  0  0  0  0  0  0  0  0  0  0  0
  1 21  1  0  0  0  0
  1 22  1  0  0  0  0
  1 23  1  0  0  0  0
  2  3  1  0  0  0  0
  2 17  1  0  0  0  0
  2 20  1  0  0  0  0
  2  1  1  1  0  0  0
  3  4  1  0  0  0  0
  3 24  1  0  0  0  0
  3 25  1  0  0  0  0
  4  5  1  0  0  0  0
  4 26  1  0  0  0  0
  4 27  1  0  0  0  0
  5  6  1  0  0  0  0
  5 15  1  0  0  0  0
  5 28  1  6  0  0  0
  6  7  1  0  0  0  0
  6 17  1  0  0  0  0
  6 29  1  6  0  0  0
  7  8  1  0  0  0  0
  7 30  1  0  0  0  0
  7 31  1  0  0  0  0
  8  9  1  0  0  0  0
  8 32  1  0  0  0  0
  8 33  1  0  0  0  0
  9 10  1  0  0  0  0
  9 15  1  0  0  0  0
  9 34  1  1  0  0  0
 10 11  1  0  0  0  0
 10 35  1  0  0  0  0
 10 36  1  0  0  0  0
 11 13  1  0  0  0  0
 11 12  2  0  0  0  0
 13 14  1  0  0  0  0
 13 37  1  0  0  0  0
 13 38  1  0  0  0  0
 14 15  1  0  0  0  0
 14 39  1  0  0  0  0
 14 40  1  0  0  0  0
 15 16  1  1  0  0  0
 16 41  1  0  0  0  0
 16 42  1  0  0  0  0
 16 43  1  0  0  0  0
 17 18  1  0  0  0  0
 17 44  1  6  0  0  0
 18 19  1  0  0  0  0
 18 45  1  0  0  0  0
 18 46  1  0  0  0  0
 19 20  2  0  0  0  0
 19 47  1  0  0  0  0
 20 48  1  0  0  0  0
M  END
$$$$
