
 OpenBabel07202215583D

 26 27  0  0  0  0  0  0  0  0999 V2000
    0.9821    0.0645    0.0819 C   0  0  0  0  0  0  0  0  0  0  0  0
    2.4864    0.0315    0.0289 C   0  0  0  0  0  0  0  0  0  0  0  0
    3.0716   -0.4556   -0.9396 O   0  0  0  0  0  0  0  0  0  0  0  0
    3.2263    0.6286    1.2069 C   0  0  0  0  0  0  0  0  0  0  0  0
    4.7423    0.5303    1.0180 C   0  0  0  0  0  0  0  0  0  0  0  0
    5.4760    1.1417    2.1862 C   0  0  0  0  0  0  0  0  0  0  0  0
    5.4160    2.5402    2.3837 C   0  0  0  0  0  0  0  0  0  0  0  0
    5.9931    3.1342    3.5067 C   0  0  0  0  0  0  0  0  0  0  0  0
    6.6390    2.3123    4.4020 C   0  0  0  0  0  0  0  0  0  0  0  0
    7.2317    2.7127    5.5583 O   0  0  0  0  0  0  0  0  0  0  0  0
    7.6537    1.4431    6.0962 C   0  0  0  0  0  0  0  0  0  0  0  0
    7.4229    0.3352    5.2003 O   0  0  0  0  0  0  0  0  0  0  0  0
    6.7393    0.9554    4.2003 C   0  0  0  0  0  0  0  0  0  0  0  0
    6.1736    0.3388    3.1026 C   0  0  0  0  0  0  0  0  0  0  0  0
    0.5805   -0.3977   -0.8247 H   0  0  0  0  0  0  0  0  0  0  0  0
    0.6334    1.0990    0.1313 H   0  0  0  0  0  0  0  0  0  0  0  0
    0.6282   -0.4981    0.9489 H   0  0  0  0  0  0  0  0  0  0  0  0
    2.9223    0.0996    2.1179 H   0  0  0  0  0  0  0  0  0  0  0  0
    2.9149    1.6757    1.3035 H   0  0  0  0  0  0  0  0  0  0  0  0
    5.0470    1.0457    0.0979 H   0  0  0  0  0  0  0  0  0  0  0  0
    5.0368   -0.5191    0.8901 H   0  0  0  0  0  0  0  0  0  0  0  0
    4.8986    3.1675    1.6604 H   0  0  0  0  0  0  0  0  0  0  0  0
    5.9226    4.2023    3.6736 H   0  0  0  0  0  0  0  0  0  0  0  0
    7.1010    1.2579    7.0252 H   0  0  0  0  0  0  0  0  0  0  0  0
    8.7227    1.4982    6.3304 H   0  0  0  0  0  0  0  0  0  0  0  0
    6.2570   -0.7355    2.9742 H   0  0  0  0  0  0  0  0  0  0  0  0
  1  2  1  0  0  0  0
  1 15  1  0  0  0  0
  1 16  1  0  0  0  0
  1 17  1  0  0  0  0
  2  3  2  0  0  0  0
  2  4  1  0  0  0  0
  4  5  1  0  0  0  0
  4 18  1  0  0  0  0
  4 19  1  0  0  0  0
  5  6  1  0  0  0  0
  5 20  1  0  0  0  0
  5 21  1  0  0  0  0
  6  7  1  0  0  0  0
  6 14  2  0  0  0  0
  7  8  2  0  0  0  0
  7 22  1  0  0  0  0
  8  9  1  0  0  0  0
  8 23  1  0  0  0  0
  9 10  1  0  0  0  0
  9 13  2  0  0  0  0
 10 11  1  0  0  0  0
 11 12  1  0  0  0  0
 11 24  1  0  0  0  0
 11 25  1  0  0  0  0
 12 13  1  0  0  0  0
 13 14  1  0  0  0  0
 14 26  1  0  0  0  0
M  END
$$$$
