
 OpenBabel07122215493D

 26 27  0  0  0  0  0  0  0  0999 V2000
    0.9604    0.0708    0.0630 C   0  0  0  0  0  0  0  0  0  0  0  0
    2.4641    0.1427    0.0616 C   0  0  0  0  0  0  0  0  0  0  0  0
    3.0538    1.2187   -0.0378 O   0  0  0  0  0  0  0  0  0  0  0  0
    3.1898   -1.1740    0.1737 C   0  0  0  0  0  0  0  0  0  0  0  0
    4.7095   -1.0125    0.1508 C   0  0  0  0  0  0  0  0  0  0  0  0
    5.4625   -2.3198    0.2752 C   0  0  0  0  0  0  0  0  0  0  0  0
    6.8512   -2.2932    0.5434 C   0  0  0  0  0  0  0  0  0  0  0  0
    7.5820   -3.4801    0.6864 C   0  0  0  0  0  0  0  0  0  0  0  0
    6.9061   -4.6729    0.5480 C   0  0  0  0  0  0  0  0  0  0  0  0
    7.4336   -5.9204    0.6666 O   0  0  0  0  0  0  0  0  0  0  0  0
    6.2497   -6.7315    0.5007 C   0  0  0  0  0  0  0  0  0  0  0  0
    5.0771   -5.9704    0.1552 O   0  0  0  0  0  0  0  0  0  0  0  0
    5.5658   -4.7077    0.2628 C   0  0  0  0  0  0  0  0  0  0  0  0
    4.8246   -3.5606    0.1159 C   0  0  0  0  0  0  0  0  0  0  0  0
    0.5508    1.0790   -0.0322 H   0  0  0  0  0  0  0  0  0  0  0  0
    0.6128   -0.3685    1.0015 H   0  0  0  0  0  0  0  0  0  0  0  0
    0.6187   -0.5322   -0.7826 H   0  0  0  0  0  0  0  0  0  0  0  0
    2.8607   -1.7886   -0.6723 H   0  0  0  0  0  0  0  0  0  0  0  0
    2.8777   -1.6605    1.1063 H   0  0  0  0  0  0  0  0  0  0  0  0
    5.0084   -0.3539    0.9776 H   0  0  0  0  0  0  0  0  0  0  0  0
    5.0154   -0.5202   -0.7810 H   0  0  0  0  0  0  0  0  0  0  0  0
    7.3669   -1.3390    0.6481 H   0  0  0  0  0  0  0  0  0  0  0  0
    8.6435   -3.4618    0.9046 H   0  0  0  0  0  0  0  0  0  0  0  0
    6.0495   -7.2572    1.4417 H   0  0  0  0  0  0  0  0  0  0  0  0
    6.4313   -7.4712   -0.2863 H   0  0  0  0  0  0  0  0  0  0  0  0
    3.7696   -3.6592   -0.1053 H   0  0  0  0  0  0  0  0  0  0  0  0
  1  2  1  0  0  0  0
  1 15  1  0  0  0  0
  1 16  1  0  0  0  0
  1 17  1  0  0  0  0
  2  3  2  0  0  0  0
  2  4  1  0  0  0  0
  4  5  1  0  0  0  0
  4 18  1  0  0  0  0
  4 19  1  0  0  0  0
  5  6  1  0  0  0  0
  5 20  1  0  0  0  0
  5 21  1  0  0  0  0
  6  7  1  0  0  0  0
  6 14  2  0  0  0  0
  7  8  2  0  0  0  0
  7 22  1  0  0  0  0
  8  9  1  0  0  0  0
  8 23  1  0  0  0  0
  9 10  1  0  0  0  0
  9 13  2  0  0  0  0
 10 11  1  0  0  0  0
 11 12  1  0  0  0  0
 11 24  1  0  0  0  0
 11 25  1  0  0  0  0
 12 13  1  0  0  0  0
 13 14  1  0  0  0  0
 14 26  1  0  0  0  0
M  END
$$$$
