
 OpenBabel07202215583D

 24 24  0  0  1  0  0  0  0  0999 V2000
    3.1286    0.1664   -2.5258 C   0  0  0  0  0  0  0  0  0  0  0  0
    2.7157   -1.2273   -2.0235 C   0  0  0  0  0  0  0  0  0  0  0  0
    3.0564   -1.3284   -0.5081 C   0  0  2  0  0  0  0  0  0  0  0  0
    2.3134   -0.1875    0.2367 C   0  0  0  0  0  0  0  0  0  0  0  0
    1.0599    0.2493   -0.2589 C   0  0  0  0  0  0  0  0  0  0  0  0
    0.5091    1.4723    0.1082 C   0  0  0  0  0  0  0  0  0  0  0  0
    1.0793    2.1920    1.1421 C   0  0  0  0  0  0  0  0  0  0  0  0
    2.2546    1.7324    1.7331 C   0  0  0  0  0  0  0  0  0  0  0  0
    2.8805    0.5637    1.2743 C   0  0  0  0  0  0  0  0  0  0  0  0
    4.5989   -1.3171   -0.4438 C   0  0  0  0  0  0  0  0  0  0  0  0
    5.2984   -0.4270    0.0327 O   0  0  0  0  0  0  0  0  0  0  0  0
    5.1954   -2.3766   -1.0496 O   0  0  0  0  0  0  0  0  0  0  0  0
    2.8319    0.3417   -3.5572 H   0  0  0  0  0  0  0  0  0  0  0  0
    4.2098    0.2882   -2.4273 H   0  0  0  0  0  0  0  0  0  0  0  0
    2.6936    0.9822   -1.9410 H   0  0  0  0  0  0  0  0  0  0  0  0
    3.2270   -1.9924   -2.6167 H   0  0  0  0  0  0  0  0  0  0  0  0
    1.6528   -1.4273   -2.2111 H   0  0  0  0  0  0  0  0  0  0  0  0
    2.7127   -2.2804   -0.0784 H   0  0  0  0  0  0  0  0  0  0  0  0
    0.5510   -0.2736   -1.0627 H   0  0  0  0  0  0  0  0  0  0  0  0
   -0.3323    1.8702   -0.4533 H   0  0  0  0  0  0  0  0  0  0  0  0
    0.6122    3.1132    1.4749 H   0  0  0  0  0  0  0  0  0  0  0  0
    2.7192    2.3198    2.5209 H   0  0  0  0  0  0  0  0  0  0  0  0
    3.8482    0.3116    1.7033 H   0  0  0  0  0  0  0  0  0  0  0  0
    4.6063   -3.0275   -1.4730 H   0  0  0  0  0  0  0  0  0  0  0  0
  1  2  1  0  0  0  0
  1 13  1  0  0  0  0
  1 14  1  0  0  0  0
  1 15  1  0  0  0  0
  2 16  1  0  0  0  0
  2 17  1  0  0  0  0
  3 10  1  0  0  0  0
  3  4  1  0  0  0  0
  3  2  1  0  0  0  0
  3 18  1  1  0  0  0
  4  5  2  0  0  0  0
  4  9  1  0  0  0  0
  5  6  1  0  0  0  0
  5 19  1  0  0  0  0
  6  7  2  0  0  0  0
  6 20  1  0  0  0  0
  7  8  1  0  0  0  0
  7 21  1  0  0  0  0
  8  9  2  0  0  0  0
  8 22  1  0  0  0  0
  9 23  1  0  0  0  0
 10 11  2  0  0  0  0
 10 12  1  0  0  0  0
 12 24  1  0  0  0  0
M  END
$$$$
