
 OpenBabel07202215583D

 25 25  0  0  0  0  0  0  0  0999 V2000
    1.1098    0.0298    0.0839 C   0  0  0  0  0  0  0  0  0  0  0  0
    2.4515    0.0489    0.1017 C   0  0  0  0  0  0  0  0  0  0  0  0
    3.2448    0.9923    0.9566 C   0  0  0  0  0  0  0  0  0  0  0  0
    4.6543    0.7670    0.7612 O   0  0  0  0  0  0  0  0  0  0  0  0
    5.4110    1.5952    1.5414 C   0  0  0  0  0  0  0  0  0  0  0  0
    4.9165    2.4196    2.3095 O   0  0  0  0  0  0  0  0  0  0  0  0
    6.9151    1.3886    1.3291 C   0  0  0  0  0  0  0  0  0  0  0  0
    7.7144    2.3724    2.1698 C   0  0  0  0  0  0  0  0  0  0  0  0
    8.4700    1.9639    3.2770 C   0  0  0  0  0  0  0  0  0  0  0  0
    8.9062    2.9117    4.2090 C   0  0  0  0  0  0  0  0  0  0  0  0
    8.6682    4.2704    3.9984 C   0  0  0  0  0  0  0  0  0  0  0  0
    7.9941    4.6880    2.8554 C   0  0  0  0  0  0  0  0  0  0  0  0
    7.5359    3.7462    1.9386 C   0  0  0  0  0  0  0  0  0  0  0  0
    0.5653   -0.6678   -0.5459 H   0  0  0  0  0  0  0  0  0  0  0  0
    0.5196    0.7074    0.6959 H   0  0  0  0  0  0  0  0  0  0  0  0
    2.9986   -0.6474   -0.5268 H   0  0  0  0  0  0  0  0  0  0  0  0
    2.9908    0.8195    2.0102 H   0  0  0  0  0  0  0  0  0  0  0  0
    2.9995    2.0241    0.6735 H   0  0  0  0  0  0  0  0  0  0  0  0
    7.1644    1.5463    0.2731 H   0  0  0  0  0  0  0  0  0  0  0  0
    7.1765    0.3588    1.5984 H   0  0  0  0  0  0  0  0  0  0  0  0
    8.6819    0.9127    3.4576 H   0  0  0  0  0  0  0  0  0  0  0  0
    9.3929    2.5904    5.1268 H   0  0  0  0  0  0  0  0  0  0  0  0
    8.9953    5.0037    4.7304 H   0  0  0  0  0  0  0  0  0  0  0  0
    7.7691    5.7396    2.7023 H   0  0  0  0  0  0  0  0  0  0  0  0
    6.9483    4.0823    1.0869 H   0  0  0  0  0  0  0  0  0  0  0  0
  1  2  2  0  0  0  0
  1 14  1  0  0  0  0
  1 15  1  0  0  0  0
  2  3  1  0  0  0  0
  2 16  1  0  0  0  0
  3  4  1  0  0  0  0
  3 17  1  0  0  0  0
  3 18  1  0  0  0  0
  4  5  1  0  0  0  0
  5  6  2  0  0  0  0
  5  7  1  0  0  0  0
  7  8  1  0  0  0  0
  7 19  1  0  0  0  0
  7 20  1  0  0  0  0
  8  9  1  0  0  0  0
  8 13  2  0  0  0  0
  9 10  2  0  0  0  0
  9 21  1  0  0  0  0
 10 11  1  0  0  0  0
 10 22  1  0  0  0  0
 11 12  2  0  0  0  0
 11 23  1  0  0  0  0
 12 13  1  0  0  0  0
 12 24  1  0  0  0  0
 13 25  1  0  0  0  0
M  END
$$$$
