
 OpenBabel07222214433D

 38 37  0  0  0  0  0  0  0  0999 V2000
    0.9587    0.0762   -0.0522 C   0  0  0  0  0  0  0  0  0  0  0  0
    2.4751    0.0820   -0.0471 C   0  0  0  0  0  0  0  0  0  0  0  0
    2.9996    1.1461    0.9074 C   0  0  0  0  0  0  0  0  0  0  0  0
    4.5211    1.1556    0.9159 C   0  0  0  0  0  0  0  0  0  0  0  0
    5.0360    2.2218    1.8724 C   0  0  0  0  0  0  0  0  0  0  0  0
    6.5574    2.2356    1.8847 C   0  0  0  0  0  0  0  0  0  0  0  0
    7.0749    3.3043    2.8434 C   0  0  0  0  0  0  0  0  0  0  0  0
    8.5980    3.3135    2.8517 C   0  0  0  0  0  0  0  0  0  0  0  0
    9.1731    4.3694    3.7988 C   0  0  0  0  0  0  0  0  0  0  0  0
   10.6875    4.3294    3.7630 C   0  0  0  0  0  0  0  0  0  0  0  0
   11.3427    3.5578    3.0708 O   0  0  0  0  0  0  0  0  0  0  0  0
   11.2321    5.2615    4.5990 O   0  0  0  0  0  0  0  0  0  0  0  0
   12.6710    5.2562    4.5943 C   0  0  0  0  0  0  0  0  0  0  0  0
   13.1961    6.3167    5.5455 C   0  0  0  0  0  0  0  0  0  0  0  0
    0.5846   -0.6884   -0.7381 H   0  0  0  0  0  0  0  0  0  0  0  0
    0.5694    1.0480   -0.3722 H   0  0  0  0  0  0  0  0  0  0  0  0
    0.5694   -0.1366    0.9485 H   0  0  0  0  0  0  0  0  0  0  0  0
    2.8456    0.2743   -1.0608 H   0  0  0  0  0  0  0  0  0  0  0  0
    2.8456   -0.9049    0.2539 H   0  0  0  0  0  0  0  0  0  0  0  0
    2.6259    0.9541    1.9209 H   0  0  0  0  0  0  0  0  0  0  0  0
    2.6259    2.1328    0.6069 H   0  0  0  0  0  0  0  0  0  0  0  0
    4.8977    1.3502   -0.0957 H   0  0  0  0  0  0  0  0  0  0  0  0
    4.8977    0.1709    1.2190 H   0  0  0  0  0  0  0  0  0  0  0  0
    4.6582    2.0265    2.8835 H   0  0  0  0  0  0  0  0  0  0  0  0
    4.6582    3.2058    1.5688 H   0  0  0  0  0  0  0  0  0  0  0  0
    6.9325    2.4276    0.8716 H   0  0  0  0  0  0  0  0  0  0  0  0
    6.9325    1.2492    2.1853 H   0  0  0  0  0  0  0  0  0  0  0  0
    6.6957    3.1063    3.8529 H   0  0  0  0  0  0  0  0  0  0  0  0
    6.6957    4.2865    2.5373 H   0  0  0  0  0  0  0  0  0  0  0  0
    8.9636    3.4956    1.8328 H   0  0  0  0  0  0  0  0  0  0  0  0
    8.9636    2.3204    3.1430 H   0  0  0  0  0  0  0  0  0  0  0  0
    8.8309    4.1720    4.8207 H   0  0  0  0  0  0  0  0  0  0  0  0
    8.8309    5.3639    3.4920 H   0  0  0  0  0  0  0  0  0  0  0  0
   13.0364    5.4681    3.5825 H   0  0  0  0  0  0  0  0  0  0  0  0
   13.0364    4.2733    4.9145 H   0  0  0  0  0  0  0  0  0  0  0  0
   12.8441    7.3111    5.2537 H   0  0  0  0  0  0  0  0  0  0  0  0
   14.2913    6.3233    5.5515 H   0  0  0  0  0  0  0  0  0  0  0  0
   12.8441    6.1342    6.5657 H   0  0  0  0  0  0  0  0  0  0  0  0
  1  2  1  0  0  0  0
  1 15  1  0  0  0  0
  1 16  1  0  0  0  0
  1 17  1  0  0  0  0
  2  3  1  0  0  0  0
  2 18  1  0  0  0  0
  2 19  1  0  0  0  0
  3  4  1  0  0  0  0
  3 20  1  0  0  0  0
  3 21  1  0  0  0  0
  4  5  1  0  0  0  0
  4 22  1  0  0  0  0
  4 23  1  0  0  0  0
  5  6  1  0  0  0  0
  5 24  1  0  0  0  0
  5 25  1  0  0  0  0
  6  7  1  0  0  0  0
  6 26  1  0  0  0  0
  6 27  1  0  0  0  0
  7  8  1  0  0  0  0
  7 28  1  0  0  0  0
  7 29  1  0  0  0  0
  8  9  1  0  0  0  0
  8 30  1  0  0  0  0
  8 31  1  0  0  0  0
  9 10  1  0  0  0  0
  9 32  1  0  0  0  0
  9 33  1  0  0  0  0
 10 11  2  0  0  0  0
 10 12  1  0  0  0  0
 12 13  1  0  0  0  0
 13 14  1  0  0  0  0
 13 34  1  0  0  0  0
 13 35  1  0  0  0  0
 14 36  1  0  0  0  0
 14 37  1  0  0  0  0
 14 38  1  0  0  0  0
M  END
$$$$
