
 OpenBabel07222214433D

 30 29  0  0  0  0  0  0  0  0999 V2000
    1.0553    0.0320    0.0294 C   0  0  0  0  0  0  0  0  0  0  0  0
    2.5681    0.0114    0.0406 C   0  0  0  0  0  0  0  0  0  0  0  0
    3.0521   -1.2720    0.7014 C   0  0  0  0  0  0  0  0  0  0  0  0
    4.5570   -1.3026    0.7210 C   0  0  0  0  0  0  0  0  0  0  0  0
    5.0893   -2.5806    1.3734 C   0  0  0  0  0  0  0  0  0  0  0  0
    6.5909   -2.5009    1.3111 C   0  0  0  0  0  0  0  0  0  0  0  0
    7.0823   -1.4773    0.8306 O   0  0  0  0  0  0  0  0  0  0  0  0
    7.4322   -3.6240    1.8744 C   0  0  0  0  0  0  0  0  0  0  0  0
    7.0718   -4.9527    1.2006 C   0  0  0  0  0  0  0  0  0  0  0  0
    8.9508   -3.4466    1.8194 C   0  0  0  0  0  0  0  0  0  0  0  0
    9.6394   -2.2486    1.2008 C   0  0  0  0  0  0  0  0  0  0  0  0
    9.6716   -4.3341    2.2998 O   0  0  0  0  0  0  0  0  0  0  0  0
    0.6892    0.9471   -0.4408 H   0  0  0  0  0  0  0  0  0  0  0  0
    0.6663   -0.0164    1.0514 H   0  0  0  0  0  0  0  0  0  0  0  0
    0.6668   -0.8271   -0.5268 H   0  0  0  0  0  0  0  0  0  0  0  0
    2.9496    0.8854    0.5830 H   0  0  0  0  0  0  0  0  0  0  0  0
    2.9502    0.0783   -0.9857 H   0  0  0  0  0  0  0  0  0  0  0  0
    2.6801   -2.1437    0.1520 H   0  0  0  0  0  0  0  0  0  0  0  0
    2.6770   -1.3347    1.7285 H   0  0  0  0  0  0  0  0  0  0  0  0
    4.9362   -0.4208    1.2578 H   0  0  0  0  0  0  0  0  0  0  0  0
    4.9372   -1.2261   -0.3087 H   0  0  0  0  0  0  0  0  0  0  0  0
    4.7374   -3.4520    0.8156 H   0  0  0  0  0  0  0  0  0  0  0  0
    4.7692   -2.6487    2.4177 H   0  0  0  0  0  0  0  0  0  0  0  0
    7.1796   -3.6935    2.9429 H   0  0  0  0  0  0  0  0  0  0  0  0
    7.3080   -4.9197    0.1316 H   0  0  0  0  0  0  0  0  0  0  0  0
    6.0079   -5.1907    1.3014 H   0  0  0  0  0  0  0  0  0  0  0  0
    7.6242   -5.7933    1.6368 H   0  0  0  0  0  0  0  0  0  0  0  0
    9.0270   -1.4610    0.7932 H   0  0  0  0  0  0  0  0  0  0  0  0
   10.2491   -2.5897    0.3622 H   0  0  0  0  0  0  0  0  0  0  0  0
   10.2491   -1.7618    1.9647 H   0  0  0  0  0  0  0  0  0  0  0  0
  1  2  1  0  0  0  0
  1 13  1  0  0  0  0
  1 14  1  0  0  0  0
  1 15  1  0  0  0  0
  2  3  1  0  0  0  0
  2 16  1  0  0  0  0
  2 17  1  0  0  0  0
  3  4  1  0  0  0  0
  3 18  1  0  0  0  0
  3 19  1  0  0  0  0
  4  5  1  0  0  0  0
  4 20  1  0  0  0  0
  4 21  1  0  0  0  0
  5  6  1  0  0  0  0
  5 22  1  0  0  0  0
  5 23  1  0  0  0  0
  6  7  2  0  0  0  0
  6  8  1  0  0  0  0
  8  9  1  0  0  0  0
  8 10  1  0  0  0  0
  8 24  1  0  0  0  0
  9 25  1  0  0  0  0
  9 26  1  0  0  0  0
  9 27  1  0  0  0  0
 10 11  1  0  0  0  0
 10 12  2  0  0  0  0
 11 28  1  0  0  0  0
 11 29  1  0  0  0  0
 11 30  1  0  0  0  0
M  END
$$$$
