
 OpenBabel07222214433D

 18 18  0  0  0  0  0  0  0  0999 V2000
    1.0497   -0.0387    0.0275 C   0  0  0  0  0  0  0  0  0  0  0  0
    2.5419   -0.1660    0.1154 C   0  0  0  0  0  0  0  0  0  0  0  0
    3.0951   -1.2062    0.4651 O   0  0  0  0  0  0  0  0  0  0  0  0
    3.1707    1.0254   -0.2423 O   0  0  0  0  0  0  0  0  0  0  0  0
    4.5807    1.0243   -0.3456 C   0  0  0  0  0  0  0  0  0  0  0  0
    5.2724    2.1594    0.0834 C   0  0  0  0  0  0  0  0  0  0  0  0
    6.6607    2.2272   -0.0871 C   0  0  0  0  0  0  0  0  0  0  0  0
    7.3571    1.1436   -0.6258 C   0  0  0  0  0  0  0  0  0  0  0  0
    6.6618    0.0148   -1.0528 C   0  0  0  0  0  0  0  0  0  0  0  0
    5.2724   -0.0328   -0.9411 C   0  0  0  0  0  0  0  0  0  0  0  0
    0.6094   -0.9906    0.3470 H   0  0  0  0  0  0  0  0  0  0  0  0
    0.7300    0.1472   -1.0009 H   0  0  0  0  0  0  0  0  0  0  0  0
    0.6880    0.7411    0.7005 H   0  0  0  0  0  0  0  0  0  0  0  0
    4.7495    2.9879    0.5518 H   0  0  0  0  0  0  0  0  0  0  0  0
    7.2059    3.1243    0.1970 H   0  0  0  0  0  0  0  0  0  0  0  0
    8.4404    1.1769   -0.7148 H   0  0  0  0  0  0  0  0  0  0  0  0
    7.1961   -0.8293   -1.4805 H   0  0  0  0  0  0  0  0  0  0  0  0
    4.7484   -0.9108   -1.3051 H   0  0  0  0  0  0  0  0  0  0  0  0
  1  2  1  0  0  0  0
  1 11  1  0  0  0  0
  1 12  1  0  0  0  0
  1 13  1  0  0  0  0
  2  3  2  0  0  0  0
  2  4  1  0  0  0  0
  4  5  1  0  0  0  0
  5  6  2  0  0  0  0
  5 10  1  0  0  0  0
  6  7  1  0  0  0  0
  6 14  1  0  0  0  0
  7  8  2  0  0  0  0
  7 15  1  0  0  0  0
  8  9  1  0  0  0  0
  8 16  1  0  0  0  0
  9 10  2  0  0  0  0
  9 17  1  0  0  0  0
 10 18  1  0  0  0  0
M  END
$$$$
