
 OpenBabel07202215583D

 22 22  0  0  0  0  0  0  0  0999 V2000
    0.9259   -0.0976   -0.0797 C   0  0  0  0  0  0  0  0  0  0  0  0
    2.4486   -0.1011   -0.0532 C   0  0  0  0  0  0  0  0  0  0  0  0
    2.9330    0.1350    1.2701 O   0  0  0  0  0  0  0  0  0  0  0  0
    2.9689    1.4272    1.7306 C   0  0  0  0  0  0  0  0  0  0  0  0
    3.4249    1.5381    3.0557 C   0  0  0  0  0  0  0  0  0  0  0  0
    3.5298    2.7954    3.6586 C   0  0  0  0  0  0  0  0  0  0  0  0
    4.0174    2.9211    5.0472 C   0  0  0  0  0  0  0  0  0  0  0  0
    4.1243    4.0156    5.5964 O   0  0  0  0  0  0  0  0  0  0  0  0
    3.1756    3.9453    2.9500 C   0  0  0  0  0  0  0  0  0  0  0  0
    2.7076    3.8430    1.6424 C   0  0  0  0  0  0  0  0  0  0  0  0
    2.6059    2.5930    1.0347 C   0  0  0  0  0  0  0  0  0  0  0  0
    2.1404    2.5497   -0.2500 O   0  0  0  0  0  0  0  0  0  0  0  0
    0.5543   -0.2334   -1.0985 H   0  0  0  0  0  0  0  0  0  0  0  0
    0.4978    0.8271    0.3201 H   0  0  0  0  0  0  0  0  0  0  0  0
    0.5390   -0.8999    0.5553 H   0  0  0  0  0  0  0  0  0  0  0  0
    2.9116    0.5686   -0.7855 H   0  0  0  0  0  0  0  0  0  0  0  0
    2.7985   -1.0951   -0.3523 H   0  0  0  0  0  0  0  0  0  0  0  0
    3.6942    0.6370    3.6032 H   0  0  0  0  0  0  0  0  0  0  0  0
    4.2836    1.9925    5.5757 H   0  0  0  0  0  0  0  0  0  0  0  0
    3.2626    4.9247    3.4147 H   0  0  0  0  0  0  0  0  0  0  0  0
    2.4295    4.7455    1.1077 H   0  0  0  0  0  0  0  0  0  0  0  0
    1.8920    3.4325   -0.5634 H   0  0  0  0  0  0  0  0  0  0  0  0
  1  2  1  0  0  0  0
  1 13  1  0  0  0  0
  1 14  1  0  0  0  0
  1 15  1  0  0  0  0
  2  3  1  0  0  0  0
  2 16  1  0  0  0  0
  2 17  1  0  0  0  0
  3  4  1  0  0  0  0
  4  5  1  0  0  0  0
  4 11  2  0  0  0  0
  5  6  2  0  0  0  0
  5 18  1  0  0  0  0
  6  7  1  0  0  0  0
  6  9  1  0  0  0  0
  7  8  2  0  0  0  0
  7 19  1  0  0  0  0
  9 10  2  0  0  0  0
  9 20  1  0  0  0  0
 10 11  1  0  0  0  0
 10 21  1  0  0  0  0
 11 12  1  0  0  0  0
 12 22  1  0  0  0  0
M  END
$$$$
