
 OpenBabel07222214443D

 27 27  0  0  0  0  0  0  0  0999 V2000
    0.9787   -0.0901    0.0539 C   0  0  0  0  0  0  0  0  0  0  0  0
    2.4971   -0.0922    0.0457 C   0  0  0  0  0  0  0  0  0  0  0  0
    3.0488    1.2129   -0.5193 C   0  0  0  0  0  0  0  0  0  0  0  0
    4.5674    1.2097   -0.5585 C   0  0  0  0  0  0  0  0  0  0  0  0
    5.2542    0.2435   -0.2242 O   0  0  0  0  0  0  0  0  0  0  0  0
    5.2487    2.4405   -1.0231 C   0  0  0  0  0  0  0  0  0  0  0  0
    6.3867    2.3580   -1.8318 C   0  0  0  0  0  0  0  0  0  0  0  0
    7.0868    3.5255   -2.1621 C   0  0  0  0  0  0  0  0  0  0  0  0
    6.6218    4.7766   -1.7408 C   0  0  0  0  0  0  0  0  0  0  0  0
    5.4876    4.8443   -0.9324 C   0  0  0  0  0  0  0  0  0  0  0  0
    4.8043    3.6838   -0.5736 C   0  0  0  0  0  0  0  0  0  0  0  0
    7.3372    5.8604   -2.1744 O   0  0  0  0  0  0  0  0  0  0  0  0
    6.7892    7.1394   -1.8594 C   0  0  0  0  0  0  0  0  0  0  0  0
    0.6017   -1.0332    0.4602 H   0  0  0  0  0  0  0  0  0  0  0  0
    0.5841    0.0285   -0.9602 H   0  0  0  0  0  0  0  0  0  0  0  0
    0.5914    0.7269    0.6713 H   0  0  0  0  0  0  0  0  0  0  0  0
    2.8585   -0.9400   -0.5473 H   0  0  0  0  0  0  0  0  0  0  0  0
    2.8652   -0.2371    1.0688 H   0  0  0  0  0  0  0  0  0  0  0  0
    2.6914    2.0364    0.1067 H   0  0  0  0  0  0  0  0  0  0  0  0
    2.6815    1.3643   -1.5411 H   0  0  0  0  0  0  0  0  0  0  0  0
    6.7329    1.3945   -2.2019 H   0  0  0  0  0  0  0  0  0  0  0  0
    8.0049    3.4569   -2.7424 H   0  0  0  0  0  0  0  0  0  0  0  0
    5.1166    5.7851   -0.5418 H   0  0  0  0  0  0  0  0  0  0  0  0
    3.9486    3.7735    0.0866 H   0  0  0  0  0  0  0  0  0  0  0  0
    7.4006    7.9056   -2.3441 H   0  0  0  0  0  0  0  0  0  0  0  0
    6.8239    7.3178   -0.7793 H   0  0  0  0  0  0  0  0  0  0  0  0
    5.7663    7.2455   -2.2406 H   0  0  0  0  0  0  0  0  0  0  0  0
  1  2  1  0  0  0  0
  1 14  1  0  0  0  0
  1 15  1  0  0  0  0
  1 16  1  0  0  0  0
  2  3  1  0  0  0  0
  2 17  1  0  0  0  0
  2 18  1  0  0  0  0
  3  4  1  0  0  0  0
  3 19  1  0  0  0  0
  3 20  1  0  0  0  0
  4  5  2  0  0  0  0
  4  6  1  0  0  0  0
  6  7  2  0  0  0  0
  6 11  1  0  0  0  0
  7  8  1  0  0  0  0
  7 21  1  0  0  0  0
  8  9  2  0  0  0  0
  8 22  1  0  0  0  0
  9 10  1  0  0  0  0
  9 12  1  0  0  0  0
 10 11  2  0  0  0  0
 10 23  1  0  0  0  0
 11 24  1  0  0  0  0
 12 13  1  0  0  0  0
 13 25  1  0  0  0  0
 13 26  1  0  0  0  0
 13 27  1  0  0  0  0
M  END
$$$$
