
 OpenBabel07222214433D

 27 28  0  0  1  0  0  0  0  0999 V2000
    1.0128    0.0227    0.0079 C   0  0  0  0  0  0  0  0  0  0  0  0
    2.5356   -0.1107    0.0205 C   0  0  0  0  0  0  0  0  0  0  0  0
    2.8472   -1.6082    0.0641 C   0  0  0  0  0  0  0  0  0  0  0  0
    3.2478    0.6526   -1.1484 C   0  0  2  0  0  0  0  0  0  0  0  0
    4.7201    0.2084   -1.2685 C   0  0  0  0  0  0  0  0  0  0  0  0
    5.3616    0.7971    0.0027 C   0  0  0  0  0  0  0  0  0  0  0  0
    4.2238    1.6291    0.6297 C   0  0  1  0  0  0  0  0  0  0  0  0
    4.6846    2.7101    1.5789 C   0  0  0  0  0  0  0  0  0  0  0  0
    3.4485    2.0866   -0.6063 C   0  0  0  0  0  0  0  0  0  0  0  0
    3.1286    0.7079    1.1697 C   0  0  0  0  0  0  0  0  0  0  0  0
    2.6525    0.7739    2.3004 O   0  0  0  0  0  0  0  0  0  0  0  0
    0.6723    1.0591    0.0591 H   0  0  0  0  0  0  0  0  0  0  0  0
    0.5867   -0.4997    0.8757 H   0  0  0  0  0  0  0  0  0  0  0  0
    0.5930   -0.4451   -0.8892 H   0  0  0  0  0  0  0  0  0  0  0  0
    3.9089   -1.8444    0.1604 H   0  0  0  0  0  0  0  0  0  0  0  0
    2.4731   -2.0853   -0.8512 H   0  0  0  0  0  0  0  0  0  0  0  0
    2.3592   -2.0915    0.9165 H   0  0  0  0  0  0  0  0  0  0  0  0
    2.7036    0.6109   -2.0944 H   0  0  0  0  0  0  0  0  0  0  0  0
    5.1808    0.6411   -2.1637 H   0  0  0  0  0  0  0  0  0  0  0  0
    4.8618   -0.8714   -1.3498 H   0  0  0  0  0  0  0  0  0  0  0  0
    6.2087    1.4311   -0.2868 H   0  0  0  0  0  0  0  0  0  0  0  0
    5.7335    0.0154    0.6733 H   0  0  0  0  0  0  0  0  0  0  0  0
    5.3568    3.4163    1.0801 H   0  0  0  0  0  0  0  0  0  0  0  0
    5.2224    2.2795    2.4318 H   0  0  0  0  0  0  0  0  0  0  0  0
    3.8383    3.2770    1.9801 H   0  0  0  0  0  0  0  0  0  0  0  0
    4.0477    2.7221   -1.2688 H   0  0  0  0  0  0  0  0  0  0  0  0
    2.5113    2.5997   -0.3654 H   0  0  0  0  0  0  0  0  0  0  0  0
  1  2  1  0  0  0  0
  1 12  1  0  0  0  0
  1 13  1  0  0  0  0
  1 14  1  0  0  0  0
  2  4  1  0  0  0  0
  2 10  1  0  0  0  0
  2  3  1  0  0  0  0
  3 15  1  0  0  0  0
  3 16  1  0  0  0  0
  3 17  1  0  0  0  0
  4  5  1  0  0  0  0
  4  9  1  0  0  0  0
  4 18  1  6  0  0  0
  5  6  1  0  0  0  0
  5 19  1  0  0  0  0
  5 20  1  0  0  0  0
  6  7  1  0  0  0  0
  6 21  1  0  0  0  0
  6 22  1  0  0  0  0
  7  9  1  0  0  0  0
  7 10  1  0  0  0  0
  7  8  1  1  0  0  0
  8 23  1  0  0  0  0
  8 24  1  0  0  0  0
  8 25  1  0  0  0  0
  9 26  1  0  0  0  0
  9 27  1  0  0  0  0
 10 11  2  0  0  0  0
M  END
$$$$
