
 OpenBabel07122215493D

 14 13  0  0  0  0  0  0  0  0999 V2000
    0.9970    0.0834   -0.0031 C   0  0  0  0  0  0  0  0  0  0  0  0
    2.4929    0.0798    0.0808 C   0  0  0  0  0  0  0  0  0  0  0  0
    3.1467    0.0285    1.2561 C   0  0  0  0  0  0  0  0  0  0  0  0
    2.4704   -0.0297    2.5914 C   0  0  0  0  0  0  0  0  0  0  0  0
    4.6355    0.0280    1.2677 C   0  0  0  0  0  0  0  0  0  0  0  0
    5.2847   -0.0174    2.3094 O   0  0  0  0  0  0  0  0  0  0  0  0
    0.6617    0.1287   -1.0418 H   0  0  0  0  0  0  0  0  0  0  0  0
    0.5866    0.9544    0.5196 H   0  0  0  0  0  0  0  0  0  0  0  0
    0.5866   -0.8297    0.4418 H   0  0  0  0  0  0  0  0  0  0  0  0
    3.0312    0.1209   -0.8637 H   0  0  0  0  0  0  0  0  0  0  0  0
    1.3795   -0.0261    2.5085 H   0  0  0  0  0  0  0  0  0  0  0  0
    2.7447    0.8381    3.1977 H   0  0  0  0  0  0  0  0  0  0  0  0
    2.7447   -0.9470    3.1199 H   0  0  0  0  0  0  0  0  0  0  0  0
    5.1330    0.0709    0.2853 H   0  0  0  0  0  0  0  0  0  0  0  0
  1  2  1  0  0  0  0
  1  7  1  0  0  0  0
  1  8  1  0  0  0  0
  1  9  1  0  0  0  0
  2  3  2  0  0  0  0
  2 10  1  0  0  0  0
  3  4  1  0  0  0  0
  3  5  1  0  0  0  0
  4 11  1  0  0  0  0
  4 12  1  0  0  0  0
  4 13  1  0  0  0  0
  5  6  2  0  0  0  0
  5 14  1  0  0  0  0
M  END
$$$$
