
 OpenBabel07222214433D

 27 27  0  0  1  0  0  0  0  0999 V2000
    0.9606    0.0455   -0.0137 C   0  0  0  0  0  0  0  0  0  0  0  0
    2.4931    0.0399   -0.0668 C   0  0  2  0  0  0  0  0  0  0  0  0
    3.0014    1.0788   -1.0818 C   0  0  0  0  0  0  0  0  0  0  0  0
    2.5801    0.7261   -2.5110 C   0  0  0  0  0  0  0  0  0  0  0  0
    3.0434   -0.6633   -2.8617 C   0  0  0  0  0  0  0  0  0  0  0  0
    3.8439   -1.0294   -3.8828 C   0  0  0  0  0  0  0  0  0  0  0  0
    4.3181   -2.4483   -4.1005 C   0  0  0  0  0  0  0  0  0  0  0  0
    4.3602   -0.0376   -4.8924 C   0  0  0  0  0  0  0  0  0  0  0  0
    2.5942   -1.6694   -1.8476 C   0  0  0  0  0  0  0  0  0  0  0  0
    1.8990   -2.6388   -2.1444 O   0  0  0  0  0  0  0  0  0  0  0  0
    3.0127   -1.3546   -0.4345 C   0  0  0  0  0  0  0  0  0  0  0  0
    0.5899    1.0362    0.2639 H   0  0  0  0  0  0  0  0  0  0  0  0
    0.5950   -0.6858    0.7115 H   0  0  0  0  0  0  0  0  0  0  0  0
    0.5093   -0.2126   -0.9779 H   0  0  0  0  0  0  0  0  0  0  0  0
    2.8754    0.3053    0.9260 H   0  0  0  0  0  0  0  0  0  0  0  0
    4.0981    1.1344   -1.0313 H   0  0  0  0  0  0  0  0  0  0  0  0
    2.6251    2.0757   -0.8261 H   0  0  0  0  0  0  0  0  0  0  0  0
    2.9625    1.5023   -3.1736 H   0  0  0  0  0  0  0  0  0  0  0  0
    1.4906    0.7709   -2.6203 H   0  0  0  0  0  0  0  0  0  0  0  0
    3.9695   -3.1526   -3.3406 H   0  0  0  0  0  0  0  0  0  0  0  0
    5.4119   -2.4917   -4.0780 H   0  0  0  0  0  0  0  0  0  0  0  0
    3.9689   -2.8207   -5.0682 H   0  0  0  0  0  0  0  0  0  0  0  0
    4.0264    0.9857   -4.7141 H   0  0  0  0  0  0  0  0  0  0  0  0
    4.0146   -0.3025   -5.8949 H   0  0  0  0  0  0  0  0  0  0  0  0
    5.4537   -0.0100   -4.8774 H   0  0  0  0  0  0  0  0  0  0  0  0
    4.1088   -1.3940   -0.3900 H   0  0  0  0  0  0  0  0  0  0  0  0
    2.6276   -2.1206    0.2459 H   0  0  0  0  0  0  0  0  0  0  0  0
  1  2  1  0  0  0  0
  1 12  1  0  0  0  0
  1 13  1  0  0  0  0
  1 14  1  0  0  0  0
  2  3  1  0  0  0  0
  2 11  1  0  0  0  0
  2 15  1  1  0  0  0
  3  4  1  0  0  0  0
  3 16  1  0  0  0  0
  3 17  1  0  0  0  0
  4  5  1  0  0  0  0
  4 18  1  0  0  0  0
  4 19  1  0  0  0  0
  5  6  2  0  0  0  0
  5  9  1  0  0  0  0
  6  7  1  0  0  0  0
  6  8  1  0  0  0  0
  7 20  1  0  0  0  0
  7 21  1  0  0  0  0
  7 22  1  0  0  0  0
  8 23  1  0  0  0  0
  8 24  1  0  0  0  0
  8 25  1  0  0  0  0
  9 10  2  0  0  0  0
  9 11  1  0  0  0  0
 11 26  1  0  0  0  0
 11 27  1  0  0  0  0
M  END
$$$$
