
 OpenBabel07222214443D

 21 21  0  0  0  0  0  0  0  0999 V2000
    0.9747    0.0703    0.0484 C   0  0  0  0  0  0  0  0  0  0  0  0
    2.4830    0.0956    0.0305 C   0  0  0  0  0  0  0  0  0  0  0  0
    3.1309    0.1427   -1.0128 O   0  0  0  0  0  0  0  0  0  0  0  0
    3.1950    0.0920    1.3297 C   0  0  0  0  0  0  0  0  0  0  0  0
    2.7735   -0.7590    2.3462 C   0  0  0  0  0  0  0  0  0  0  0  0
    3.4422   -0.8025    3.5752 C   0  0  0  0  0  0  0  0  0  0  0  0
    4.5648    0.0130    3.7996 C   0  0  0  0  0  0  0  0  0  0  0  0
    4.9780    0.8734    2.7601 C   0  0  0  0  0  0  0  0  0  0  0  0
    4.3044    0.9111    1.5309 C   0  0  0  0  0  0  0  0  0  0  0  0
    5.3617    0.1090    4.9120 O   0  0  0  0  0  0  0  0  0  0  0  0
    5.0759   -0.7255    6.0260 C   0  0  0  0  0  0  0  0  0  0  0  0
    2.7319   -1.9202    4.6912 Cl  0  0  0  0  0  0  0  0  0  0  0  0
    0.6013    0.0715   -0.9800 H   0  0  0  0  0  0  0  0  0  0  0  0
    0.5984    0.9651    0.5521 H   0  0  0  0  0  0  0  0  0  0  0  0
    0.5928   -0.8288    0.5374 H   0  0  0  0  0  0  0  0  0  0  0  0
    1.9326   -1.4276    2.1887 H   0  0  0  0  0  0  0  0  0  0  0  0
    5.8424    1.5231    2.9033 H   0  0  0  0  0  0  0  0  0  0  0  0
    4.6441    1.5777    0.7395 H   0  0  0  0  0  0  0  0  0  0  0  0
    5.8121   -0.5417    6.8133 H   0  0  0  0  0  0  0  0  0  0  0  0
    5.1662   -1.7825    5.7548 H   0  0  0  0  0  0  0  0  0  0  0  0
    4.0977   -0.4774    6.4498 H   0  0  0  0  0  0  0  0  0  0  0  0
  1  2  1  0  0  0  0
  1 13  1  0  0  0  0
  1 14  1  0  0  0  0
  1 15  1  0  0  0  0
  2  3  2  0  0  0  0
  2  4  1  0  0  0  0
  4  5  2  0  0  0  0
  4  9  1  0  0  0  0
  5  6  1  0  0  0  0
  5 16  1  0  0  0  0
  6  7  2  0  0  0  0
  6 12  1  0  0  0  0
  7  8  1  0  0  0  0
  7 10  1  0  0  0  0
  8  9  2  0  0  0  0
  8 17  1  0  0  0  0
  9 18  1  0  0  0  0
 10 11  1  0  0  0  0
 11 19  1  0  0  0  0
 11 20  1  0  0  0  0
 11 21  1  0  0  0  0
M  END
$$$$
