
 OpenBabel07202215583D

 35 36  0  0  0  0  0  0  0  0999 V2000
    1.0250   -0.1447    0.5165 C   0  0  0  0  0  0  0  0  0  0  0  0
    2.4689    0.0862    0.1217 C   0  0  0  0  0  0  0  0  0  0  0  0
    2.8165    0.3245   -1.3782 C   0  0  0  0  0  0  0  0  0  0  0  0
    3.8624    1.3183   -1.3619 O   0  0  0  0  0  0  0  0  0  0  0  0
    1.7110    0.7351   -2.4641 C   0  0  0  0  0  0  0  0  0  0  0  0
    0.2388    0.9429   -2.0699 C   0  0  0  0  0  0  0  0  0  0  0  0
    2.0627    2.0829   -3.1576 C   0  0  0  0  0  0  0  0  0  0  0  0
    1.8316   -0.4565   -3.4752 C   0  0  0  0  0  0  0  0  0  0  0  0
    1.3740   -1.7966   -2.8453 C   0  0  0  0  0  0  0  0  0  0  0  0
    2.5224   -2.1666   -1.8985 C   0  0  0  0  0  0  0  0  0  0  0  0
    3.4740   -0.9632   -2.0444 C   0  0  0  0  0  0  0  0  0  0  0  0
    4.9132   -1.2745   -1.6457 C   0  0  0  0  0  0  0  0  0  0  0  0
    3.3388   -0.6908   -3.5512 C   0  0  0  0  0  0  0  0  0  0  0  0
    0.9400   -0.4254    1.5688 H   0  0  0  0  0  0  0  0  0  0  0  0
    0.5701   -0.9514   -0.0607 H   0  0  0  0  0  0  0  0  0  0  0  0
    0.4498    0.7768    0.4112 H   0  0  0  0  0  0  0  0  0  0  0  0
    3.0431   -0.7743    0.4902 H   0  0  0  0  0  0  0  0  0  0  0  0
    2.8410    0.9206    0.7303 H   0  0  0  0  0  0  0  0  0  0  0  0
    3.5073    2.1185   -0.9277 H   0  0  0  0  0  0  0  0  0  0  0  0
    0.1322    1.8001   -1.3962 H   0  0  0  0  0  0  0  0  0  0  0  0
   -0.2486    0.0788   -1.6249 H   0  0  0  0  0  0  0  0  0  0  0  0
   -0.3680    1.1702   -2.9558 H   0  0  0  0  0  0  0  0  0  0  0  0
    2.0129    2.9036   -2.4299 H   0  0  0  0  0  0  0  0  0  0  0  0
    1.3407    2.3160   -3.9494 H   0  0  0  0  0  0  0  0  0  0  0  0
    3.0546    2.1036   -3.6133 H   0  0  0  0  0  0  0  0  0  0  0  0
    1.3538   -0.2593   -4.4380 H   0  0  0  0  0  0  0  0  0  0  0  0
    1.2752   -2.5700   -3.6153 H   0  0  0  0  0  0  0  0  0  0  0  0
    0.4168   -1.7460   -2.3246 H   0  0  0  0  0  0  0  0  0  0  0  0
    2.9976   -3.0978   -2.2298 H   0  0  0  0  0  0  0  0  0  0  0  0
    2.1830   -2.3411   -0.8752 H   0  0  0  0  0  0  0  0  0  0  0  0
    5.0059   -1.4547   -0.5710 H   0  0  0  0  0  0  0  0  0  0  0  0
    5.5922   -0.4562   -1.9112 H   0  0  0  0  0  0  0  0  0  0  0  0
    5.2811   -2.1680   -2.1642 H   0  0  0  0  0  0  0  0  0  0  0  0
    3.5983   -1.5599   -4.1694 H   0  0  0  0  0  0  0  0  0  0  0  0
    3.9188    0.1647   -3.9044 H   0  0  0  0  0  0  0  0  0  0  0  0
  1  2  1  0  0  0  0
  1 14  1  0  0  0  0
  1 15  1  0  0  0  0
  1 16  1  0  0  0  0
  2  3  1  0  0  0  0
  2 17  1  0  0  0  0
  2 18  1  0  0  0  0
  3  4  1  0  0  0  0
  3  5  1  0  0  0  0
  3 11  1  0  0  0  0
  4 19  1  0  0  0  0
  5  6  1  0  0  0  0
  5  7  1  0  0  0  0
  5  8  1  0  0  0  0
  6 20  1  0  0  0  0
  6 21  1  0  0  0  0
  6 22  1  0  0  0  0
  7 23  1  0  0  0  0
  7 24  1  0  0  0  0
  7 25  1  0  0  0  0
  8  9  1  0  0  0  0
  8 13  1  0  0  0  0
  8 26  1  0  0  0  0
  9 10  1  0  0  0  0
  9 27  1  0  0  0  0
  9 28  1  0  0  0  0
 10 11  1  0  0  0  0
 10 29  1  0  0  0  0
 10 30  1  0  0  0  0
 11 12  1  0  0  0  0
 11 13  1  0  0  0  0
 12 31  1  0  0  0  0
 12 32  1  0  0  0  0
 12 33  1  0  0  0  0
 13 34  1  0  0  0  0
 13 35  1  0  0  0  0
M  END
$$$$
