
 OpenBabel07202215583D

 17 17  0  0  0  0  0  0  0  0999 V2000
    0.9600   -0.1134   -0.0799 C   0  0  0  0  0  0  0  0  0  0  0  0
    2.3805   -0.0866   -0.0636 O   0  0  0  0  0  0  0  0  0  0  0  0
    2.9824    1.1453   -0.0699 C   0  0  0  0  0  0  0  0  0  0  0  0
    4.3832    1.0789   -0.0873 C   0  0  0  0  0  0  0  0  0  0  0  0
    5.1563    2.2421   -0.1080 C   0  0  0  0  0  0  0  0  0  0  0  0
    4.5348    3.4862   -0.1099 C   0  0  0  0  0  0  0  0  0  0  0  0
    3.1423    3.5698   -0.0828 C   0  0  0  0  0  0  0  0  0  0  0  0
    2.3693    2.4041   -0.0607 C   0  0  0  0  0  0  0  0  0  0  0  0
    1.0073    2.5371   -0.0279 O   0  0  0  0  0  0  0  0  0  0  0  0
    0.6393   -1.1587   -0.0929 H   0  0  0  0  0  0  0  0  0  0  0  0
    0.5661    0.3550   -0.9883 H   0  0  0  0  0  0  0  0  0  0  0  0
    0.5493    0.3366    0.8300 H   0  0  0  0  0  0  0  0  0  0  0  0
    4.8758    0.1095   -0.0862 H   0  0  0  0  0  0  0  0  0  0  0  0
    6.2413    2.1726   -0.1240 H   0  0  0  0  0  0  0  0  0  0  0  0
    5.1327    4.3937   -0.1312 H   0  0  0  0  0  0  0  0  0  0  0  0
    2.6755    4.5491   -0.0805 H   0  0  0  0  0  0  0  0  0  0  0  0
    0.7708    3.4762   -0.0009 H   0  0  0  0  0  0  0  0  0  0  0  0
  1  2  1  0  0  0  0
  1 10  1  0  0  0  0
  1 11  1  0  0  0  0
  1 12  1  0  0  0  0
  2  3  1  0  0  0  0
  3  4  1  0  0  0  0
  3  8  2  0  0  0  0
  4  5  2  0  0  0  0
  4 13  1  0  0  0  0
  5  6  1  0  0  0  0
  5 14  1  0  0  0  0
  6  7  2  0  0  0  0
  6 15  1  0  0  0  0
  7  8  1  0  0  0  0
  7 16  1  0  0  0  0
  8  9  1  0  0  0  0
  9 17  1  0  0  0  0
M  END
$$$$
