
 OpenBabel07222214433D

 23 23  0  0  0  0  0  0  0  0999 V2000
    0.9346    0.1232   -0.1224 C   0  0  0  0  0  0  0  0  0  0  0  0
    2.4639    0.0990   -0.0892 C   0  0  0  0  0  0  0  0  0  0  0  0
    2.9762   -1.1454    0.6449 C   0  0  0  0  0  0  0  0  0  0  0  0
    2.5303   -1.2270    2.0884 C   0  0  0  0  0  0  0  0  0  0  0  0
    2.3187   -0.0736    2.8627 C   0  0  0  0  0  0  0  0  0  0  0  0
    1.9841   -0.1630    4.2083 C   0  0  0  0  0  0  0  0  0  0  0  0
    1.8152   -1.4117    4.7921 C   0  0  0  0  0  0  0  0  0  0  0  0
    2.0053   -2.5681    4.0356 C   0  0  0  0  0  0  0  0  0  0  0  0
    2.3686   -2.4789    2.6913 C   0  0  0  0  0  0  0  0  0  0  0  0
    3.0239    0.1355   -1.4889 C   0  0  0  0  0  0  0  0  0  0  0  0
    4.2331    0.1388   -1.7296 O   0  0  0  0  0  0  0  0  0  0  0  0
    0.4990    0.1063    0.8821 H   0  0  0  0  0  0  0  0  0  0  0  0
    0.5418   -0.7447   -0.6616 H   0  0  0  0  0  0  0  0  0  0  0  0
    0.5700    1.0297   -0.6123 H   0  0  0  0  0  0  0  0  0  0  0  0
    2.8287    1.0153    0.3897 H   0  0  0  0  0  0  0  0  0  0  0  0
    4.0738   -1.1731    0.6339 H   0  0  0  0  0  0  0  0  0  0  0  0
    2.6425   -2.0412    0.1012 H   0  0  0  0  0  0  0  0  0  0  0  0
    2.3877    0.9212    2.4319 H   0  0  0  0  0  0  0  0  0  0  0  0
    1.8651    0.7457    4.7915 H   0  0  0  0  0  0  0  0  0  0  0  0
    1.5362   -1.4809    5.8386 H   0  0  0  0  0  0  0  0  0  0  0  0
    1.8843   -3.5431    4.4986 H   0  0  0  0  0  0  0  0  0  0  0  0
    2.5222   -3.3909    2.1182 H   0  0  0  0  0  0  0  0  0  0  0  0
    2.2938    0.1845   -2.3108 H   0  0  0  0  0  0  0  0  0  0  0  0
  1  2  1  0  0  0  0
  1 12  1  0  0  0  0
  1 13  1  0  0  0  0
  1 14  1  0  0  0  0
  2  3  1  0  0  0  0
  2 10  1  0  0  0  0
  2 15  1  0  0  0  0
  3  4  1  0  0  0  0
  3 16  1  0  0  0  0
  3 17  1  0  0  0  0
  4  5  1  0  0  0  0
  4  9  2  0  0  0  0
  5  6  2  0  0  0  0
  5 18  1  0  0  0  0
  6  7  1  0  0  0  0
  6 19  1  0  0  0  0
  7  8  2  0  0  0  0
  7 20  1  0  0  0  0
  8  9  1  0  0  0  0
  8 21  1  0  0  0  0
  9 22  1  0  0  0  0
 10 11  2  0  0  0  0
 10 23  1  0  0  0  0
M  END
$$$$
