
 OpenBabel07122215493D

 33 32  0  0  0  0  0  0  0  0999 V2000
   -0.2202    0.7260   -0.4625 C   0  0  0  0  0  0  0  0  0  0  0  0
    1.0929    1.1141   -0.7685 O   0  0  0  0  0  0  0  0  0  0  0  0
    1.9326    1.1739   -1.9014 C   0  0  0  0  0  0  0  0  0  0  0  0
    1.8747   -1.0017    0.2451 C   0  0  0  0  0  0  0  0  0  0  0  0
    3.0646   -0.3017    0.5919 O   0  0  0  0  0  0  0  0  0  0  0  0
    3.3342    1.0778    0.6485 C   0  0  0  0  0  0  0  0  0  0  0  0
    4.7059    1.1382    0.3888 C   0  0  0  0  0  0  0  0  0  0  0  0
    5.3623    2.3390    0.1077 C   0  0  0  0  0  0  0  0  0  0  0  0
    6.8397    2.2578   -0.1205 C   0  0  0  0  0  0  0  0  0  0  0  0
    7.5386    3.5929   -0.1679 C   0  0  0  0  0  0  0  0  0  0  0  0
    8.8174    3.7523   -0.1778 C   0  0  0  0  0  0  0  0  0  0  0  0
    4.6337    3.5272   -0.0045 C   0  0  0  0  0  0  0  0  0  0  0  0
    3.2967    3.5586    0.2790 C   0  0  0  0  0  0  0  0  0  0  0  0
    2.6466    2.3737    0.6759 C   0  0  0  0  0  0  0  0  0  0  0  0
    1.3115    2.6766    0.9166 O   0  0  0  0  0  0  0  0  0  0  0  0
   -0.2706    0.0536    0.4145 H   0  0  0  0  0  0  0  0  0  0  0  0
   -0.7078    0.1977   -1.2638 H   0  0  0  0  0  0  0  0  0  0  0  0
   -0.7428    1.5788   -0.0263 H   0  0  0  0  0  0  0  0  0  0  0  0
    2.9725    0.8887   -1.6388 H   0  0  0  0  0  0  0  0  0  0  0  0
    2.0766    2.2229   -2.1632 H   0  0  0  0  0  0  0  0  0  0  0  0
    1.7074    0.4767   -2.6938 H   0  0  0  0  0  0  0  0  0  0  0  0
    1.8648   -2.1056    0.2451 H   0  0  0  0  0  0  0  0  0  0  0  0
    1.5768   -0.8918   -0.8075 H   0  0  0  0  0  0  0  0  0  0  0  0
    1.1900   -0.7505    1.0375 H   0  0  0  0  0  0  0  0  0  0  0  0
    5.2592    0.2008    0.2798 H   0  0  0  0  0  0  0  0  0  0  0  0
    7.0239    1.6960   -1.0446 H   0  0  0  0  0  0  0  0  0  0  0  0
    7.2560    1.6842    0.7188 H   0  0  0  0  0  0  0  0  0  0  0  0
    6.9378    4.5089   -0.1515 H   0  0  0  0  0  0  0  0  0  0  0  0
    9.5042    2.8989   -0.1707 H   0  0  0  0  0  0  0  0  0  0  0  0
    9.2343    4.7663   -0.1834 H   0  0  0  0  0  0  0  0  0  0  0  0
    5.0658    4.4659   -0.3242 H   0  0  0  0  0  0  0  0  0  0  0  0
    2.7809    4.5103    0.1218 H   0  0  0  0  0  0  0  0  0  0  0  0
    1.0535    3.4252    0.3264 H   0  0  0  0  0  0  0  0  0  0  0  0
  1  2  1  0  0  0  0
  1 16  1  0  0  0  0
  1 17  1  0  0  0  0
  1 18  1  0  0  0  0
  2  3  1  0  0  0  0
  3 19  1  0  0  0  0
  3 20  1  0  0  0  0
  3 21  1  0  0  0  0
  4  5  1  0  0  0  0
  4 22  1  0  0  0  0
  4 23  1  0  0  0  0
  4 24  1  0  0  0  0
  5  6  1  0  0  0  0
  6  7  1  0  0  0  0
  6 14  2  0  0  0  0
  7  8  2  0  0  0  0
  7 25  1  0  0  0  0
  8  9  1  0  0  0  0
  8 12  1  0  0  0  0
  9 10  1  0  0  0  0
  9 26  1  0  0  0  0
  9 27  1  0  0  0  0
 10 11  2  0  0  0  0
 10 28  1  0  0  0  0
 11 29  1  0  0  0  0
 11 30  1  0  0  0  0
 12 13  2  0  0  0  0
 12 31  1  0  0  0  0
 13 14  1  0  0  0  0
 13 32  1  0  0  0  0
 14 15  1  0  0  0  0
 15 33  1  0  0  0  0
M  END
$$$$
