
 OpenBabel07202215583D

 15 14  0  0  0  0  0  0  0  0999 V2000
    1.0501    0.0460   -0.0571 C   0  0  0  0  0  0  0  0  0  0  0  0
    2.5695    0.0370   -0.0664 C   0  0  0  0  0  0  0  0  0  0  0  0
    3.1113   -0.9443   -1.1011 C   0  0  0  0  0  0  0  0  0  0  0  0
    4.6334   -0.9567   -1.1114 C   0  0  0  0  0  0  0  0  0  0  0  0
    5.1017   -1.8722   -2.0921 O   0  0  0  0  0  0  0  0  0  0  0  0
    0.6791    0.7539    0.6903 H   0  0  0  0  0  0  0  0  0  0  0  0
    0.6550   -0.9454    0.1866 H   0  0  0  0  0  0  0  0  0  0  0  0
    0.6551    0.3430   -1.0339 H   0  0  0  0  0  0  0  0  0  0  0  0
    2.9352   -0.2336    0.9310 H   0  0  0  0  0  0  0  0  0  0  0  0
    2.9356    1.0473   -0.2831 H   0  0  0  0  0  0  0  0  0  0  0  0
    2.7425   -0.6856   -2.1016 H   0  0  0  0  0  0  0  0  0  0  0  0
    2.7380   -1.9556   -0.8966 H   0  0  0  0  0  0  0  0  0  0  0  0
    5.0350   -1.2548   -0.1376 H   0  0  0  0  0  0  0  0  0  0  0  0
    5.0283    0.0338   -1.3572 H   0  0  0  0  0  0  0  0  0  0  0  0
    4.7594   -2.7513   -1.8586 H   0  0  0  0  0  0  0  0  0  0  0  0
  1  2  1  0  0  0  0
  1  6  1  0  0  0  0
  1  7  1  0  0  0  0
  1  8  1  0  0  0  0
  2  3  1  0  0  0  0
  2  9  1  0  0  0  0
  2 10  1  0  0  0  0
  3  4  1  0  0  0  0
  3 11  1  0  0  0  0
  3 12  1  0  0  0  0
  4  5  1  0  0  0  0
  4 13  1  0  0  0  0
  4 14  1  0  0  0  0
  5 15  1  0  0  0  0
M  END
$$$$
