
 OpenBabel07222214433D

 23 23  0  0  0  0  0  0  0  0999 V2000
    1.0904    0.0069    0.0092 C   0  0  0  0  0  0  0  0  0  0  0  0
    2.5139   -0.0939   -0.0619 O   0  0  0  0  0  0  0  0  0  0  0  0
    3.1004    0.8636   -0.8425 C   0  0  0  0  0  0  0  0  0  0  0  0
    4.2118    0.4980   -1.6033 C   0  0  0  0  0  0  0  0  0  0  0  0
    4.8691    1.4477   -2.4026 C   0  0  0  0  0  0  0  0  0  0  0  0
    4.3909    2.7668   -2.4844 C   0  0  0  0  0  0  0  0  0  0  0  0
    5.0110    3.7405   -3.4750 C   0  0  0  0  0  0  0  0  0  0  0  0
    4.3626    5.1007   -3.5574 C   0  0  0  0  0  0  0  0  0  0  0  0
    4.7335    6.0907   -4.3836 C   0  0  0  0  0  0  0  0  0  0  0  0
    3.3163    3.1156   -1.6588 C   0  0  0  0  0  0  0  0  0  0  0  0
    2.6830    2.1848   -0.8477 C   0  0  0  0  0  0  0  0  0  0  0  0
    0.7368   -0.7219    0.7426 H   0  0  0  0  0  0  0  0  0  0  0  0
    0.6526   -0.2339   -0.9647 H   0  0  0  0  0  0  0  0  0  0  0  0
    0.7320    0.9828    0.3520 H   0  0  0  0  0  0  0  0  0  0  0  0
    4.5573   -0.5329   -1.5946 H   0  0  0  0  0  0  0  0  0  0  0  0
    5.7484    1.1433   -2.9685 H   0  0  0  0  0  0  0  0  0  0  0  0
    4.9414    3.2750   -4.4681 H   0  0  0  0  0  0  0  0  0  0  0  0
    6.0738    3.8600   -3.2308 H   0  0  0  0  0  0  0  0  0  0  0  0
    3.5174    5.3414   -2.9288 H   0  0  0  0  0  0  0  0  0  0  0  0
    5.5539    5.9824   -5.0772 H   0  0  0  0  0  0  0  0  0  0  0  0
    4.1898    7.0302   -4.3559 H   0  0  0  0  0  0  0  0  0  0  0  0
    2.9175    4.1195   -1.6062 H   0  0  0  0  0  0  0  0  0  0  0  0
    1.8700    2.5427   -0.2290 H   0  0  0  0  0  0  0  0  0  0  0  0
  1  2  1  0  0  0  0
  1 12  1  0  0  0  0
  1 13  1  0  0  0  0
  1 14  1  0  0  0  0
  2  3  1  0  0  0  0
  3  4  1  0  0  0  0
  3 11  2  0  0  0  0
  4  5  2  0  0  0  0
  4 15  1  0  0  0  0
  5  6  1  0  0  0  0
  5 16  1  0  0  0  0
  6  7  1  0  0  0  0
  6 10  2  0  0  0  0
  7  8  1  0  0  0  0
  7 17  1  0  0  0  0
  7 18  1  0  0  0  0
  8  9  2  0  0  0  0
  8 19  1  0  0  0  0
  9 20  1  0  0  0  0
  9 21  1  0  0  0  0
 10 11  1  0  0  0  0
 10 22  1  0  0  0  0
 11 23  1  0  0  0  0
M  END
$$$$
