
 OpenBabel07202215583D

 28 27  0  0  0  0  0  0  0  0999 V2000
    0.9181    0.0387    0.0501 C   0  0  0  0  0  0  0  0  0  0  0  0
    2.4348    0.0440    0.0523 C   0  0  0  0  0  0  0  0  0  0  0  0
    2.9655    1.3667    0.5881 C   0  0  0  0  0  0  0  0  0  0  0  0
    4.4896    1.3723    0.5903 C   0  0  0  0  0  0  0  0  0  0  0  0
    5.0044    2.6968    1.1269 C   0  0  0  0  0  0  0  0  0  0  0  0
    6.5277    2.7448    1.1464 C   0  0  0  0  0  0  0  0  0  0  0  0
    6.9920    4.0812    1.6878 C   0  0  0  0  0  0  0  0  0  0  0  0
    6.1892    4.9495    2.0395 O   0  0  0  0  0  0  0  0  0  0  0  0
    8.4874    4.3021    1.7772 C   0  0  0  0  0  0  0  0  0  0  0  0
    8.7813    5.6838    2.3370 C   0  0  0  0  0  0  0  0  0  0  0  0
    0.5432   -0.9131   -0.3355 H   0  0  0  0  0  0  0  0  0  0  0  0
    0.5286    0.8441   -0.5807 H   0  0  0  0  0  0  0  0  0  0  0  0
    0.5286    0.1780    1.0637 H   0  0  0  0  0  0  0  0  0  0  0  0
    2.8040   -0.1195   -0.9668 H   0  0  0  0  0  0  0  0  0  0  0  0
    2.8040   -0.7827    0.6702 H   0  0  0  0  0  0  0  0  0  0  0  0
    2.5923    1.5321    1.6068 H   0  0  0  0  0  0  0  0  0  0  0  0
    2.5923    2.1945   -0.0283 H   0  0  0  0  0  0  0  0  0  0  0  0
    4.8640    1.2136   -0.4278 H   0  0  0  0  0  0  0  0  0  0  0  0
    4.8640    0.5498    1.2110 H   0  0  0  0  0  0  0  0  0  0  0  0
    4.6174    2.8574    2.1418 H   0  0  0  0  0  0  0  0  0  0  0  0
    4.6174    3.5185    0.5100 H   0  0  0  0  0  0  0  0  0  0  0  0
    6.9237    2.6167    0.1330 H   0  0  0  0  0  0  0  0  0  0  0  0
    6.9237    1.9476    1.7848 H   0  0  0  0  0  0  0  0  0  0  0  0
    8.9196    4.2043    0.7761 H   0  0  0  0  0  0  0  0  0  0  0  0
    8.9196    3.5350    2.4280 H   0  0  0  0  0  0  0  0  0  0  0  0
    8.3447    6.4597    1.6978 H   0  0  0  0  0  0  0  0  0  0  0  0
    9.8569    5.8598    2.4083 H   0  0  0  0  0  0  0  0  0  0  0  0
    8.3447    5.7960    3.3360 H   0  0  0  0  0  0  0  0  0  0  0  0
  1  2  1  0  0  0  0
  1 11  1  0  0  0  0
  1 12  1  0  0  0  0
  1 13  1  0  0  0  0
  2  3  1  0  0  0  0
  2 14  1  0  0  0  0
  2 15  1  0  0  0  0
  3  4  1  0  0  0  0
  3 16  1  0  0  0  0
  3 17  1  0  0  0  0
  4  5  1  0  0  0  0
  4 18  1  0  0  0  0
  4 19  1  0  0  0  0
  5  6  1  0  0  0  0
  5 20  1  0  0  0  0
  5 21  1  0  0  0  0
  6  7  1  0  0  0  0
  6 22  1  0  0  0  0
  6 23  1  0  0  0  0
  7  8  2  0  0  0  0
  7  9  1  0  0  0  0
  9 10  1  0  0  0  0
  9 24  1  0  0  0  0
  9 25  1  0  0  0  0
 10 26  1  0  0  0  0
 10 27  1  0  0  0  0
 10 28  1  0  0  0  0
M  END
$$$$
