
 OpenBabel07222214433D

 15 15  0  0  0  0  0  0  0  0999 V2000
    0.3267    1.0056   -0.1778 C   0  0  0  0  0  0  0  0  0  0  0  0
    0.9902   -0.3387    0.1990 C   0  0  0  0  0  0  0  0  0  0  0  0
   -0.3514   -1.0175   -0.2309 C   0  0  0  0  0  0  0  0  0  0  0  0
   -1.0167    0.3314    0.1799 C   0  0  0  0  0  0  0  0  0  0  0  0
   -0.4494   -1.4423   -1.7317 C   0  0  0  0  0  0  0  0  0  0  0  0
    0.4243   -1.2804   -2.5807 O   0  0  0  0  0  0  0  0  0  0  0  0
   -1.6215   -2.0432   -2.0725 O   0  0  0  0  0  0  0  0  0  0  0  0
    0.4198    1.2655   -1.2398 H   0  0  0  0  0  0  0  0  0  0  0  0
    0.6153    1.8740    0.4181 H   0  0  0  0  0  0  0  0  0  0  0  0
    1.2204   -0.4346    1.2673 H   0  0  0  0  0  0  0  0  0  0  0  0
    1.8822   -0.6081   -0.3725 H   0  0  0  0  0  0  0  0  0  0  0  0
   -0.6316   -1.8519    0.4255 H   0  0  0  0  0  0  0  0  0  0  0  0
   -1.2652    0.3957    1.2477 H   0  0  0  0  0  0  0  0  0  0  0  0
   -1.8865    0.6487   -0.3994 H   0  0  0  0  0  0  0  0  0  0  0  0
   -2.2556   -2.1310   -1.3375 H   0  0  0  0  0  0  0  0  0  0  0  0
  1  2  1  0  0  0  0
  1  4  1  0  0  0  0
  1  8  1  0  0  0  0
  1  9  1  0  0  0  0
  2  3  1  0  0  0  0
  2 10  1  0  0  0  0
  2 11  1  0  0  0  0
  3  4  1  0  0  0  0
  3  5  1  0  0  0  0
  3 12  1  0  0  0  0
  4 13  1  0  0  0  0
  4 14  1  0  0  0  0
  5  6  2  0  0  0  0
  5  7  1  0  0  0  0
  7 15  1  0  0  0  0
M  END
$$$$
