
 OpenBabel07222214443D

 27 26  0  0  0  0  0  0  0  0999 V2000
    0.8964    0.0817    0.1416 C   0  0  0  0  0  0  0  0  0  0  0  0
    2.4206    0.1149    0.2278 C   0  0  0  0  0  0  0  0  0  0  0  0
    2.9502   -1.2177   -0.2719 C   0  0  0  0  0  0  0  0  0  0  0  0
    4.4610   -1.3213   -0.4153 C   0  0  0  0  0  0  0  0  0  0  0  0
    4.9308   -2.6836   -0.9860 C   0  0  0  0  0  0  0  0  0  0  0  0
    4.4488   -2.9930   -2.4310 C   0  0  0  0  0  0  0  0  0  0  0  0
    2.9539   -3.2115   -2.6445 C   0  0  0  0  0  0  0  0  0  0  0  0
    6.4762   -2.7109   -0.9471 C   0  0  0  0  0  0  0  0  0  0  0  0
    6.9934   -3.9597   -1.3833 O   0  0  0  0  0  0  0  0  0  0  0  0
    0.4651    1.0314    0.4632 H   0  0  0  0  0  0  0  0  0  0  0  0
    0.4888   -0.7215    0.7650 H   0  0  0  0  0  0  0  0  0  0  0  0
    0.5687   -0.1056   -0.8892 H   0  0  0  0  0  0  0  0  0  0  0  0
    2.7501    0.3145    1.2507 H   0  0  0  0  0  0  0  0  0  0  0  0
    2.7945    0.9196   -0.4163 H   0  0  0  0  0  0  0  0  0  0  0  0
    2.5110   -1.2898   -1.2538 H   0  0  0  0  0  0  0  0  0  0  0  0
    2.5650   -2.0482    0.3312 H   0  0  0  0  0  0  0  0  0  0  0  0
    4.9172   -1.1661    0.5715 H   0  0  0  0  0  0  0  0  0  0  0  0
    4.8260   -0.5137   -1.0614 H   0  0  0  0  0  0  0  0  0  0  0  0
    4.5683   -3.4895   -0.3328 H   0  0  0  0  0  0  0  0  0  0  0  0
    4.9320   -3.9190   -2.7640 H   0  0  0  0  0  0  0  0  0  0  0  0
    4.7929   -2.2007   -3.1058 H   0  0  0  0  0  0  0  0  0  0  0  0
    2.5117   -3.8043   -1.8378 H   0  0  0  0  0  0  0  0  0  0  0  0
    2.7738   -3.7231   -3.5934 H   0  0  0  0  0  0  0  0  0  0  0  0
    2.4069   -2.2748   -2.7566 H   0  0  0  0  0  0  0  0  0  0  0  0
    6.8507   -2.5300    0.0662 H   0  0  0  0  0  0  0  0  0  0  0  0
    6.8927   -1.9343   -1.5995 H   0  0  0  0  0  0  0  0  0  0  0  0
    6.6165   -4.6527   -0.8060 H   0  0  0  0  0  0  0  0  0  0  0  0
  1  2  1  0  0  0  0
  1 10  1  0  0  0  0
  1 11  1  0  0  0  0
  1 12  1  0  0  0  0
  2  3  1  0  0  0  0
  2 13  1  0  0  0  0
  2 14  1  0  0  0  0
  3  4  1  0  0  0  0
  3 15  1  0  0  0  0
  3 16  1  0  0  0  0
  4  5  1  0  0  0  0
  4 17  1  0  0  0  0
  4 18  1  0  0  0  0
  5  6  1  0  0  0  0
  5  8  1  0  0  0  0
  5 19  1  0  0  0  0
  6  7  1  0  0  0  0
  6 20  1  0  0  0  0
  6 21  1  0  0  0  0
  7 22  1  0  0  0  0
  7 23  1  0  0  0  0
  7 24  1  0  0  0  0
  8  9  1  0  0  0  0
  8 25  1  0  0  0  0
  8 26  1  0  0  0  0
  9 27  1  0  0  0  0
M  END
$$$$
