
 OpenBabel07202215583D

 29 29  0  0  0  0  0  0  0  0999 V2000
    1.0871    0.0309    0.0500 C   0  0  0  0  0  0  0  0  0  0  0  0
    2.6093    0.0433    0.0337 C   0  0  0  0  0  0  0  0  0  0  0  0
    3.1514    0.9068   -1.1107 C   0  0  0  0  0  0  0  0  0  0  0  0
    4.6817    0.9316   -1.1379 C   0  0  0  0  0  0  0  0  0  0  0  0
    5.1479    1.7771   -2.2153 O   0  0  0  0  0  0  0  0  0  0  0  0
    6.5085    1.8224   -2.3274 C   0  0  0  0  0  0  0  0  0  0  0  0
    7.2905    1.1936   -1.6221 O   0  0  0  0  0  0  0  0  0  0  0  0
    6.9811    2.6859   -3.4495 C   0  0  0  0  0  0  0  0  0  0  0  0
    8.1294    2.2504   -4.1430 C   0  0  0  0  0  0  0  0  0  0  0  0
    8.7314    3.0534   -5.1155 C   0  0  0  0  0  0  0  0  0  0  0  0
    8.1980    4.3046   -5.3995 C   0  0  0  0  0  0  0  0  0  0  0  0
    7.0556    4.7416   -4.7208 C   0  0  0  0  0  0  0  0  0  0  0  0
    6.4080    3.9345   -3.7632 C   0  0  0  0  0  0  0  0  0  0  0  0
    5.3982    4.5191   -2.9801 N   0  0  0  0  0  0  0  0  0  0  0  0
    0.7163   -0.5888    0.8733 H   0  0  0  0  0  0  0  0  0  0  0  0
    0.6893   -0.3758   -0.8852 H   0  0  0  0  0  0  0  0  0  0  0  0
    0.6893    1.0421    0.1822 H   0  0  0  0  0  0  0  0  0  0  0  0
    2.9732   -0.9863   -0.0654 H   0  0  0  0  0  0  0  0  0  0  0  0
    2.9727    0.4227    0.9962 H   0  0  0  0  0  0  0  0  0  0  0  0
    2.7714    1.9312   -1.0155 H   0  0  0  0  0  0  0  0  0  0  0  0
    2.7743    0.5313   -2.0698 H   0  0  0  0  0  0  0  0  0  0  0  0
    5.0586   -0.0893   -1.2774 H   0  0  0  0  0  0  0  0  0  0  0  0
    5.0551    1.3284   -0.1863 H   0  0  0  0  0  0  0  0  0  0  0  0
    8.5795    1.2890   -3.9015 H   0  0  0  0  0  0  0  0  0  0  0  0
    9.6309    2.7164   -5.6264 H   0  0  0  0  0  0  0  0  0  0  0  0
    8.6823    4.9522   -6.1284 H   0  0  0  0  0  0  0  0  0  0  0  0
    6.6852    5.7428   -4.9326 H   0  0  0  0  0  0  0  0  0  0  0  0
    4.8941    5.2868   -3.4108 H   0  0  0  0  0  0  0  0  0  0  0  0
    4.7897    3.8406   -2.5229 H   0  0  0  0  0  0  0  0  0  0  0  0
  1  2  1  0  0  0  0
  1 15  1  0  0  0  0
  1 16  1  0  0  0  0
  1 17  1  0  0  0  0
  2  3  1  0  0  0  0
  2 18  1  0  0  0  0
  2 19  1  0  0  0  0
  3  4  1  0  0  0  0
  3 20  1  0  0  0  0
  3 21  1  0  0  0  0
  4  5  1  0  0  0  0
  4 22  1  0  0  0  0
  4 23  1  0  0  0  0
  5  6  1  0  0  0  0
  6  7  2  0  0  0  0
  6  8  1  0  0  0  0
  8  9  1  0  0  0  0
  8 13  2  0  0  0  0
  9 10  2  0  0  0  0
  9 24  1  0  0  0  0
 10 11  1  0  0  0  0
 10 25  1  0  0  0  0
 11 12  2  0  0  0  0
 11 26  1  0  0  0  0
 12 13  1  0  0  0  0
 12 27  1  0  0  0  0
 13 14  1  0  0  0  0
 14 28  1  0  0  0  0
 14 29  1  0  0  0  0
M  END
$$$$
