
 OpenBabel07202215583D

 14 13  0  0  0  0  0  0  0  0999 V2000
    1.0469   -0.0104   -0.0684 C   0  0  0  0  0  0  0  0  0  0  0  0
    2.5691    0.0621   -0.0469 C   0  0  0  0  0  0  0  0  0  0  0  0
    3.1005    0.0954   -1.4798 C   0  0  0  0  0  0  0  0  0  0  0  0
    3.1497    1.2350    0.7342 C   0  0  0  0  0  0  0  0  0  0  0  0
    2.2753    2.0921    1.2972 O   0  0  0  0  0  0  0  0  0  0  0  0
    4.3574    1.4084    0.8550 O   0  0  0  0  0  0  0  0  0  0  0  0
    0.7001   -0.8864   -0.6258 H   0  0  0  0  0  0  0  0  0  0  0  0
    0.6195    0.8797   -0.5431 H   0  0  0  0  0  0  0  0  0  0  0  0
    0.6470   -0.0835    0.9485 H   0  0  0  0  0  0  0  0  0  0  0  0
    2.9372   -0.8475    0.4463 H   0  0  0  0  0  0  0  0  0  0  0  0
    2.7684    1.0009   -1.9992 H   0  0  0  0  0  0  0  0  0  0  0  0
    2.7499   -0.7726   -2.0491 H   0  0  0  0  0  0  0  0  0  0  0  0
    4.1957    0.0855   -1.4998 H   0  0  0  0  0  0  0  0  0  0  0  0
    1.3267    1.9169    1.1725 H   0  0  0  0  0  0  0  0  0  0  0  0
  1  2  1  0  0  0  0
  1  7  1  0  0  0  0
  1  8  1  0  0  0  0
  1  9  1  0  0  0  0
  2  3  1  0  0  0  0
  2  4  1  0  0  0  0
  2 10  1  0  0  0  0
  3 11  1  0  0  0  0
  3 12  1  0  0  0  0
  3 13  1  0  0  0  0
  4  5  1  0  0  0  0
  4  6  2  0  0  0  0
  5 14  1  0  0  0  0
M  END
$$$$
