
 OpenBabel07202215583D

 12 12  0  0  0  0  0  0  0  0999 V2000
    1.3766   -0.2190    0.0040 C   0  0  0  0  0  0  0  0  0  0  0  0
    0.8743    1.0829    0.0007 C   0  0  0  0  0  0  0  0  0  0  0  0
   -0.5041    1.2970    0.0189 C   0  0  0  0  0  0  0  0  0  0  0  0
   -1.3791    0.2123   -0.0006 C   0  0  0  0  0  0  0  0  0  0  0  0
   -0.8769   -1.0896   -0.0105 C   0  0  0  0  0  0  0  0  0  0  0  0
    0.5016   -1.3039    0.0034 C   0  0  0  0  0  0  0  0  0  0  0  0
    2.4506   -0.3861    0.0098 H   0  0  0  0  0  0  0  0  0  0  0  0
    1.5557    1.9285   -0.0150 H   0  0  0  0  0  0  0  0  0  0  0  0
   -0.8955    2.3109    0.0487 H   0  0  0  0  0  0  0  0  0  0  0  0
   -2.4530    0.3798   -0.0088 H   0  0  0  0  0  0  0  0  0  0  0  0
   -1.5586   -1.9350   -0.0245 H   0  0  0  0  0  0  0  0  0  0  0  0
    0.8931   -2.3182    0.0106 H   0  0  0  0  0  0  0  0  0  0  0  0
  1  2  1  0  0  0  0
  1  6  2  0  0  0  0
  1  7  1  0  0  0  0
  2  3  2  0  0  0  0
  2  8  1  0  0  0  0
  3  4  1  0  0  0  0
  3  9  1  0  0  0  0
  4  5  2  0  0  0  0
  4 10  1  0  0  0  0
  5  6  1  0  0  0  0
  5 11  1  0  0  0  0
  6 12  1  0  0  0  0
M  END
$$$$
