
 OpenBabel07202215583D

 18 18  0  0  0  0  0  0  0  0999 V2000
    1.0571    0.0575    0.0609 C   0  0  0  0  0  0  0  0  0  0  0  0
    2.4924    0.0742    0.0672 O   0  0  0  0  0  0  0  0  0  0  0  0
    3.0503   -1.0151    0.6520 C   0  0  0  0  0  0  0  0  0  0  0  0
    2.4394   -1.9589    1.1400 O   0  0  0  0  0  0  0  0  0  0  0  0
    4.5337   -0.9532    0.6344 C   0  0  0  0  0  0  0  0  0  0  0  0
    5.2574   -2.1393    0.4425 C   0  0  0  0  0  0  0  0  0  0  0  0
    6.6449   -2.1549    0.6161 C   0  0  0  0  0  0  0  0  0  0  0  0
    7.3229   -0.9752    0.9188 C   0  0  0  0  0  0  0  0  0  0  0  0
    6.6104    0.2137    1.0839 C   0  0  0  0  0  0  0  0  0  0  0  0
    5.2168    0.2274    0.9481 C   0  0  0  0  0  0  0  0  0  0  0  0
    0.7009    0.9443   -0.4725 H   0  0  0  0  0  0  0  0  0  0  0  0
    0.6683    0.0962    1.0842 H   0  0  0  0  0  0  0  0  0  0  0  0
    0.6737   -0.8277   -0.4592 H   0  0  0  0  0  0  0  0  0  0  0  0
    4.7416   -3.0595    0.1762 H   0  0  0  0  0  0  0  0  0  0  0  0
    7.1949   -3.0904    0.5401 H   0  0  0  0  0  0  0  0  0  0  0  0
    8.4050   -0.9848    1.0342 H   0  0  0  0  0  0  0  0  0  0  0  0
    7.1415    1.1247    1.3502 H   0  0  0  0  0  0  0  0  0  0  0  0
    4.6715    1.1503    1.1247 H   0  0  0  0  0  0  0  0  0  0  0  0
  1  2  1  0  0  0  0
  1 11  1  0  0  0  0
  1 12  1  0  0  0  0
  1 13  1  0  0  0  0
  2  3  1  0  0  0  0
  3  4  2  0  0  0  0
  3  5  1  0  0  0  0
  5  6  2  0  0  0  0
  5 10  1  0  0  0  0
  6  7  1  0  0  0  0
  6 14  1  0  0  0  0
  7  8  2  0  0  0  0
  7 15  1  0  0  0  0
  8  9  1  0  0  0  0
  8 16  1  0  0  0  0
  9 10  2  0  0  0  0
  9 17  1  0  0  0  0
 10 18  1  0  0  0  0
M  END
$$$$
