
 OpenBabel07202215583D

 13 12  0  0  0  0  0  0  0  0999 V2000
    1.0043   -0.0612   -0.1034 C   0  0  0  0  0  0  0  0  0  0  0  0
    2.5154   -0.1048   -0.0026 C   0  0  0  0  0  0  0  0  0  0  0  0
    3.0504   -0.6689    1.3016 C   0  0  0  0  0  0  0  0  0  0  0  0
    2.1098   -1.1374    2.3847 C   0  0  0  0  0  0  0  0  0  0  0  0
    4.2725   -0.7459    1.4795 O   0  0  0  0  0  0  0  0  0  0  0  0
    0.6823    0.3532   -1.0616 H   0  0  0  0  0  0  0  0  0  0  0  0
    0.5833    0.5635    0.6919 H   0  0  0  0  0  0  0  0  0  0  0  0
    0.5833   -1.0686   -0.0141 H   0  0  0  0  0  0  0  0  0  0  0  0
    2.9135    0.9104   -0.1148 H   0  0  0  0  0  0  0  0  0  0  0  0
    2.9135   -0.7183   -0.8192 H   0  0  0  0  0  0  0  0  0  0  0  0
    1.0577   -1.0262    2.1276 H   0  0  0  0  0  0  0  0  0  0  0  0
    2.2874   -0.5498    3.2884 H   0  0  0  0  0  0  0  0  0  0  0  0
    2.2874   -2.1984    2.5754 H   0  0  0  0  0  0  0  0  0  0  0  0
  1  2  1  0  0  0  0
  1  6  1  0  0  0  0
  1  7  1  0  0  0  0
  1  8  1  0  0  0  0
  2  3  1  0  0  0  0
  2  9  1  0  0  0  0
  2 10  1  0  0  0  0
  3  4  1  0  0  0  0
  3  5  2  0  0  0  0
  4 11  1  0  0  0  0
  4 12  1  0  0  0  0
  4 13  1  0  0  0  0
M  END
$$$$
