
 OpenBabel07202215583D

 26 26  0  0  0  0  0  0  0  0999 V2000
    1.0221    0.4964    0.0132 C   0  0  0  0  0  0  0  0  0  0  0  0
    2.4409    0.5522    0.1613 O   0  0  0  0  0  0  0  0  0  0  0  0
    3.1236    0.9450   -0.9586 C   0  0  0  0  0  0  0  0  0  0  0  0
    2.7935    2.1617   -1.4467 N   0  0  0  0  0  0  0  0  0  0  0  0
    3.6203    2.6479   -2.3930 C   0  0  0  0  0  0  0  0  0  0  0  0
    4.7304    1.9546   -2.8523 C   0  0  0  0  0  0  0  0  0  0  0  0
    5.0450    0.7204   -2.4026 N   0  0  0  0  0  0  0  0  0  0  0  0
    4.2337    0.2026   -1.4370 C   0  0  0  0  0  0  0  0  0  0  0  0
    4.6092   -1.2082   -1.0060 C   0  0  0  0  0  0  0  0  0  0  0  0
    3.6004   -1.9275   -0.1013 C   0  0  0  0  0  0  0  0  0  0  0  0
    2.2971   -2.1794   -0.8672 C   0  0  0  0  0  0  0  0  0  0  0  0
    4.0698   -3.2632    0.4531 C   0  0  0  0  0  0  0  0  0  0  0  0
    0.6541   -0.1759    0.8000 H   0  0  0  0  0  0  0  0  0  0  0  0
    0.6958    0.0697   -0.9420 H   0  0  0  0  0  0  0  0  0  0  0  0
    0.5618    1.4735    0.1569 H   0  0  0  0  0  0  0  0  0  0  0  0
    3.3820    3.6357   -2.7664 H   0  0  0  0  0  0  0  0  0  0  0  0
    5.3976    2.3792   -3.5905 H   0  0  0  0  0  0  0  0  0  0  0  0
    5.5942   -1.1664   -0.5223 H   0  0  0  0  0  0  0  0  0  0  0  0
    4.7442   -1.8107   -1.9176 H   0  0  0  0  0  0  0  0  0  0  0  0
    3.4452   -1.3031    0.7851 H   0  0  0  0  0  0  0  0  0  0  0  0
    2.3747   -3.0423   -1.5310 H   0  0  0  0  0  0  0  0  0  0  0  0
    2.0325   -1.3548   -1.5294 H   0  0  0  0  0  0  0  0  0  0  0  0
    1.4744   -2.3413   -0.1649 H   0  0  0  0  0  0  0  0  0  0  0  0
    4.1418   -4.0163   -0.3357 H   0  0  0  0  0  0  0  0  0  0  0  0
    3.3330   -3.6141    1.1876 H   0  0  0  0  0  0  0  0  0  0  0  0
    5.0334   -3.1779    0.9600 H   0  0  0  0  0  0  0  0  0  0  0  0
  1  2  1  0  0  0  0
  1 13  1  0  0  0  0
  1 14  1  0  0  0  0
  1 15  1  0  0  0  0
  2  3  1  0  0  0  0
  3  4  1  0  0  0  0
  3  8  2  0  0  0  0
  4  5  2  0  0  0  0
  5  6  1  0  0  0  0
  5 16  1  0  0  0  0
  6  7  2  0  0  0  0
  6 17  1  0  0  0  0
  7  8  1  0  0  0  0
  8  9  1  0  0  0  0
  9 10  1  0  0  0  0
  9 18  1  0  0  0  0
  9 19  1  0  0  0  0
 10 11  1  0  0  0  0
 10 12  1  0  0  0  0
 10 20  1  0  0  0  0
 11 21  1  0  0  0  0
 11 22  1  0  0  0  0
 11 23  1  0  0  0  0
 12 24  1  0  0  0  0
 12 25  1  0  0  0  0
 12 26  1  0  0  0  0
M  END
$$$$
