
 OpenBabel07222214433D

 24 24  0  0  0  0  0  0  0  0999 V2000
    0.9844    0.0626    0.0201 C   0  0  0  0  0  0  0  0  0  0  0  0
    2.4884    0.0151   -0.0125 C   0  0  0  0  0  0  0  0  0  0  0  0
    2.9377   -1.1394   -0.7532 O   0  0  0  0  0  0  0  0  0  0  0  0
    4.3008   -1.1866   -0.7288 C   0  0  0  0  0  0  0  0  0  0  0  0
    4.9282   -0.3365   -0.1012 O   0  0  0  0  0  0  0  0  0  0  0  0
    4.9005   -2.3599   -1.5160 C   0  0  0  0  0  0  0  0  0  0  0  0
    6.4335   -2.4324   -1.5398 C   0  0  0  0  0  0  0  0  0  0  0  0
    7.1078   -3.5387   -2.0826 C   0  0  0  0  0  0  0  0  0  0  0  0
    8.5050   -3.6539   -1.9547 C   0  0  0  0  0  0  0  0  0  0  0  0
    9.2549   -2.6483   -1.3442 C   0  0  0  0  0  0  0  0  0  0  0  0
    8.6140   -1.5294   -0.8572 C   0  0  0  0  0  0  0  0  0  0  0  0
    7.2366   -1.4249   -0.9819 C   0  0  0  0  0  0  0  0  0  0  0  0
    0.6436    0.9458    0.5696 H   0  0  0  0  0  0  0  0  0  0  0  0
    0.5915   -0.8338    0.5061 H   0  0  0  0  0  0  0  0  0  0  0  0
    0.5882    0.0978   -0.9973 H   0  0  0  0  0  0  0  0  0  0  0  0
    2.8642   -0.0251    1.0205 H   0  0  0  0  0  0  0  0  0  0  0  0
    2.8683    0.9281   -0.4925 H   0  0  0  0  0  0  0  0  0  0  0  0
    4.5294   -2.3273   -2.5480 H   0  0  0  0  0  0  0  0  0  0  0  0
    4.5330   -3.2825   -1.0445 H   0  0  0  0  0  0  0  0  0  0  0  0
    6.5701   -4.3299   -2.6025 H   0  0  0  0  0  0  0  0  0  0  0  0
    9.0191   -4.5410   -2.3153 H   0  0  0  0  0  0  0  0  0  0  0  0
   10.3334   -2.7201   -1.2532 H   0  0  0  0  0  0  0  0  0  0  0  0
    9.1504   -0.7250   -0.3624 H   0  0  0  0  0  0  0  0  0  0  0  0
    6.8424   -0.4966   -0.5977 H   0  0  0  0  0  0  0  0  0  0  0  0
  1  2  1  0  0  0  0
  1 13  1  0  0  0  0
  1 14  1  0  0  0  0
  1 15  1  0  0  0  0
  2  3  1  0  0  0  0
  2 16  1  0  0  0  0
  2 17  1  0  0  0  0
  3  4  1  0  0  0  0
  4  5  2  0  0  0  0
  4  6  1  0  0  0  0
  6  7  1  0  0  0  0
  6 18  1  0  0  0  0
  6 19  1  0  0  0  0
  7  8  2  0  0  0  0
  7 12  1  0  0  0  0
  8  9  1  0  0  0  0
  8 20  1  0  0  0  0
  9 10  2  0  0  0  0
  9 21  1  0  0  0  0
 10 11  1  0  0  0  0
 10 22  1  0  0  0  0
 11 12  2  0  0  0  0
 11 23  1  0  0  0  0
 12 24  1  0  0  0  0
M  END
$$$$
