
 OpenBabel07122215493D

 28 27  0  0  0  0  0  0  0  0999 V2000
    0.9677    0.0561   -0.0868 C   0  0  0  0  0  0  0  0  0  0  0  0
    2.4844    0.0596   -0.0822 C   0  0  0  0  0  0  0  0  0  0  0  0
    3.0151    0.9168    1.0587 C   0  0  0  0  0  0  0  0  0  0  0  0
    4.5393    0.9204    1.0635 C   0  0  0  0  0  0  0  0  0  0  0  0
    5.0540    1.7788    2.2060 C   0  0  0  0  0  0  0  0  0  0  0  0
    6.5774    1.8100    2.2475 C   0  0  0  0  0  0  0  0  0  0  0  0
    7.0416    2.6761    3.4003 C   0  0  0  0  0  0  0  0  0  0  0  0
    6.2389    3.2388    4.1492 O   0  0  0  0  0  0  0  0  0  0  0  0
    8.5370    2.8193    3.5908 C   0  0  0  0  0  0  0  0  0  0  0  0
    8.8309    3.7148    4.7827 C   0  0  0  0  0  0  0  0  0  0  0  0
    0.5929   -0.5608   -0.9078 H   0  0  0  0  0  0  0  0  0  0  0  0
    0.5782    1.0715   -0.2122 H   0  0  0  0  0  0  0  0  0  0  0  0
    0.5782   -0.3470    0.8535 H   0  0  0  0  0  0  0  0  0  0  0  0
    2.8536    0.4447   -1.0398 H   0  0  0  0  0  0  0  0  0  0  0  0
    2.8536   -0.9674    0.0211 H   0  0  0  0  0  0  0  0  0  0  0  0
    2.6420    0.5334    2.0169 H   0  0  0  0  0  0  0  0  0  0  0  0
    2.6420    1.9438    0.9572 H   0  0  0  0  0  0  0  0  0  0  0  0
    4.9137    1.3093    0.1093 H   0  0  0  0  0  0  0  0  0  0  0  0
    4.9137   -0.1043    1.1714 H   0  0  0  0  0  0  0  0  0  0  0  0
    4.6670    1.3934    3.1585 H   0  0  0  0  0  0  0  0  0  0  0  0
    4.6670    2.8010    2.1009 H   0  0  0  0  0  0  0  0  0  0  0  0
    6.9733    2.2225    1.3131 H   0  0  0  0  0  0  0  0  0  0  0  0
    6.9733    0.7977    2.3836 H   0  0  0  0  0  0  0  0  0  0  0  0
    8.9692    3.2515    2.6824 H   0  0  0  0  0  0  0  0  0  0  0  0
    8.9692    1.8265    3.7531 H   0  0  0  0  0  0  0  0  0  0  0  0
    8.3943    4.7091    4.6348 H   0  0  0  0  0  0  0  0  0  0  0  0
    9.9066    3.8288    4.9344 H   0  0  0  0  0  0  0  0  0  0  0  0
    8.3943    3.2960    5.6965 H   0  0  0  0  0  0  0  0  0  0  0  0
  1  2  1  0  0  0  0
  1 11  1  0  0  0  0
  1 12  1  0  0  0  0
  1 13  1  0  0  0  0
  2  3  1  0  0  0  0
  2 14  1  0  0  0  0
  2 15  1  0  0  0  0
  3  4  1  0  0  0  0
  3 16  1  0  0  0  0
  3 17  1  0  0  0  0
  4  5  1  0  0  0  0
  4 18  1  0  0  0  0
  4 19  1  0  0  0  0
  5  6  1  0  0  0  0
  5 20  1  0  0  0  0
  5 21  1  0  0  0  0
  6  7  1  0  0  0  0
  6 22  1  0  0  0  0
  6 23  1  0  0  0  0
  7  8  2  0  0  0  0
  7  9  1  0  0  0  0
  9 10  1  0  0  0  0
  9 24  1  0  0  0  0
  9 25  1  0  0  0  0
 10 26  1  0  0  0  0
 10 27  1  0  0  0  0
 10 28  1  0  0  0  0
M  END
$$$$
