
 OpenBabel07122215493D

 34 34  0  0  0  0  0  0  0  0999 V2000
    0.7493   -0.0482   -0.1154 C   0  0  0  0  0  0  0  0  0  0  0  0
    2.2125   -0.1529   -0.2263 C   0  0  0  0  0  0  0  0  0  0  0  0
    2.8620   -1.2406   -0.6769 C   0  0  0  0  0  0  0  0  0  0  0  0
    4.2953   -1.2050   -0.3405 C   0  0  0  0  0  0  0  0  0  0  0  0
    4.5983   -0.3889    0.5191 O   0  0  0  0  0  0  0  0  0  0  0  0
    5.3416   -2.1521   -0.9823 C   0  0  0  0  0  0  0  0  0  0  0  0
    5.0467   -3.6192   -0.6282 C   0  0  0  0  0  0  0  0  0  0  0  0
    5.6879   -4.2499    0.3767 C   0  0  0  0  0  0  0  0  0  0  0  0
    6.7195   -3.5930    1.2540 C   0  0  0  0  0  0  0  0  0  0  0  0
    6.7965   -2.0718    1.0731 C   0  0  0  0  0  0  0  0  0  0  0  0
    6.7392   -1.6460   -0.4253 C   0  0  0  0  0  0  0  0  0  0  0  0
    7.9316   -2.2556   -1.1888 C   0  0  0  0  0  0  0  0  0  0  0  0
    6.9494   -0.1053   -0.6314 C   0  0  0  0  0  0  0  0  0  0  0  0
    4.0523   -4.3723   -1.4798 C   0  0  0  0  0  0  0  0  0  0  0  0
    0.4913    0.9181    0.3295 H   0  0  0  0  0  0  0  0  0  0  0  0
    0.3828   -0.8354    0.5487 H   0  0  0  0  0  0  0  0  0  0  0  0
    0.3042   -0.1237   -1.1052 H   0  0  0  0  0  0  0  0  0  0  0  0
    2.7569    0.6942    0.2030 H   0  0  0  0  0  0  0  0  0  0  0  0
    2.3845   -2.1213   -1.0681 H   0  0  0  0  0  0  0  0  0  0  0  0
    5.3443   -2.0508   -2.0759 H   0  0  0  0  0  0  0  0  0  0  0  0
    5.4800   -5.2987    0.5922 H   0  0  0  0  0  0  0  0  0  0  0  0
    7.6978   -4.0377    1.0438 H   0  0  0  0  0  0  0  0  0  0  0  0
    6.4901   -3.8180    2.3022 H   0  0  0  0  0  0  0  0  0  0  0  0
    7.6810   -1.6636    1.5671 H   0  0  0  0  0  0  0  0  0  0  0  0
    5.9493   -1.6679    1.6394 H   0  0  0  0  0  0  0  0  0  0  0  0
    7.9852   -3.3429   -1.1321 H   0  0  0  0  0  0  0  0  0  0  0  0
    8.8679   -1.8589   -0.7734 H   0  0  0  0  0  0  0  0  0  0  0  0
    7.8987   -1.9735   -2.2466 H   0  0  0  0  0  0  0  0  0  0  0  0
    6.3373    0.5690   -0.0302 H   0  0  0  0  0  0  0  0  0  0  0  0
    6.7637    0.1627   -1.6794 H   0  0  0  0  0  0  0  0  0  0  0  0
    7.9697    0.1890   -0.3696 H   0  0  0  0  0  0  0  0  0  0  0  0
    3.6823   -3.7523   -2.3020 H   0  0  0  0  0  0  0  0  0  0  0  0
    3.1852   -4.6865   -0.8872 H   0  0  0  0  0  0  0  0  0  0  0  0
    4.5034   -5.2635   -1.9325 H   0  0  0  0  0  0  0  0  0  0  0  0
  1  2  1  0  0  0  0
  1 15  1  0  0  0  0
  1 16  1  0  0  0  0
  1 17  1  0  0  0  0
  2  3  2  0  0  0  0
  2 18  1  0  0  0  0
  3  4  1  0  0  0  0
  3 19  1  0  0  0  0
  4  5  2  0  0  0  0
  4  6  1  0  0  0  0
  6  7  1  0  0  0  0
  6 11  1  0  0  0  0
  6 20  1  0  0  0  0
  7  8  2  0  0  0  0
  7 14  1  0  0  0  0
  8  9  1  0  0  0  0
  8 21  1  0  0  0  0
  9 10  1  0  0  0  0
  9 22  1  0  0  0  0
  9 23  1  0  0  0  0
 10 11  1  0  0  0  0
 10 24  1  0  0  0  0
 10 25  1  0  0  0  0
 11 12  1  0  0  0  0
 11 13  1  0  0  0  0
 12 26  1  0  0  0  0
 12 27  1  0  0  0  0
 12 28  1  0  0  0  0
 13 29  1  0  0  0  0
 13 30  1  0  0  0  0
 13 31  1  0  0  0  0
 14 32  1  0  0  0  0
 14 33  1  0  0  0  0
 14 34  1  0  0  0  0
M  END
$$$$
