
 OpenBabel07222214433D

 29 28  0  0  0  0  0  0  0  0999 V2000
    0.9170    0.0269   -0.0419 C   0  0  0  0  0  0  0  0  0  0  0  0
    2.4139    0.0199   -0.0430 C   0  0  0  0  0  0  0  0  0  0  0  0
    3.1337    1.0049    0.8401 C   0  0  0  0  0  0  0  0  0  0  0  0
    3.0828   -0.8539   -0.8186 C   0  0  0  0  0  0  0  0  0  0  0  0
    4.5757   -0.8900   -0.8514 C   0  0  0  0  0  0  0  0  0  0  0  0
    5.1458   -1.9379   -1.8046 C   0  0  0  0  0  0  0  0  0  0  0  0
    6.6892   -1.9208   -1.8260 C   0  0  0  0  0  0  0  0  0  0  0  0
    7.2226   -0.5448   -2.2555 C   0  0  0  0  0  0  0  0  0  0  0  0
    7.1847   -2.2385   -0.5242 O   0  0  0  0  0  0  0  0  0  0  0  0
    7.2179   -2.9904   -2.7509 C   0  0  0  0  0  0  0  0  0  0  0  0
    8.5267   -3.2275   -2.9464 C   0  0  0  0  0  0  0  0  0  0  0  0
    0.5163    0.7829    0.6387 H   0  0  0  0  0  0  0  0  0  0  0  0
    0.5339   -0.9475    0.2784 H   0  0  0  0  0  0  0  0  0  0  0  0
    0.5372    0.2455   -1.0453 H   0  0  0  0  0  0  0  0  0  0  0  0
    2.4438    1.6344    1.4070 H   0  0  0  0  0  0  0  0  0  0  0  0
    3.7661    1.6698    0.2405 H   0  0  0  0  0  0  0  0  0  0  0  0
    3.7680    0.4803    1.5638 H   0  0  0  0  0  0  0  0  0  0  0  0
    2.5390   -1.5532   -1.4499 H   0  0  0  0  0  0  0  0  0  0  0  0
    4.9392   -1.0839    0.1636 H   0  0  0  0  0  0  0  0  0  0  0  0
    4.9168    0.1046   -1.1544 H   0  0  0  0  0  0  0  0  0  0  0  0
    4.7553   -1.7616   -2.8160 H   0  0  0  0  0  0  0  0  0  0  0  0
    4.7858   -2.9266   -1.4877 H   0  0  0  0  0  0  0  0  0  0  0  0
    6.9344    0.2455   -1.5562 H   0  0  0  0  0  0  0  0  0  0  0  0
    6.8578   -0.2779   -3.2538 H   0  0  0  0  0  0  0  0  0  0  0  0
    8.3167   -0.5175   -2.2650 H   0  0  0  0  0  0  0  0  0  0  0  0
    6.9342   -1.5286    0.0871 H   0  0  0  0  0  0  0  0  0  0  0  0
    6.4957   -3.5965   -3.2907 H   0  0  0  0  0  0  0  0  0  0  0  0
    9.2769   -2.6553   -2.4094 H   0  0  0  0  0  0  0  0  0  0  0  0
    8.8667   -3.9950   -3.6289 H   0  0  0  0  0  0  0  0  0  0  0  0
  1  2  1  0  0  0  0
  1 12  1  0  0  0  0
  1 13  1  0  0  0  0
  1 14  1  0  0  0  0
  2  3  1  0  0  0  0
  2  4  2  0  0  0  0
  3 15  1  0  0  0  0
  3 16  1  0  0  0  0
  3 17  1  0  0  0  0
  4  5  1  0  0  0  0
  4 18  1  0  0  0  0
  5  6  1  0  0  0  0
  5 19  1  0  0  0  0
  5 20  1  0  0  0  0
  6  7  1  0  0  0  0
  6 21  1  0  0  0  0
  6 22  1  0  0  0  0
  7  8  1  0  0  0  0
  7  9  1  0  0  0  0
  7 10  1  0  0  0  0
  8 23  1  0  0  0  0
  8 24  1  0  0  0  0
  8 25  1  0  0  0  0
  9 26  1  0  0  0  0
 10 11  2  0  0  0  0
 10 27  1  0  0  0  0
 11 28  1  0  0  0  0
 11 29  1  0  0  0  0
M  END
$$$$
