
 OpenBabel07222214433D

 27 26  0  0  0  0  0  0  0  0999 V2000
    0.9046   -0.0808    0.0347 C   0  0  0  0  0  0  0  0  0  0  0  0
    2.4216   -0.0787    0.0225 C   0  0  0  0  0  0  0  0  0  0  0  0
    2.9494    0.0041   -1.4053 C   0  0  0  0  0  0  0  0  0  0  0  0
    4.4721    0.0025   -1.4150 C   0  0  0  0  0  0  0  0  0  0  0  0
    5.0041    0.0785   -2.8441 C   0  0  0  0  0  0  0  0  0  0  0  0
    6.5320    0.0716   -2.8625 C   0  0  0  0  0  0  0  0  0  0  0  0
    7.0114   -1.1241   -2.2482 O   0  0  0  0  0  0  0  0  0  0  0  0
    7.0622    0.1609   -4.2930 C   0  0  0  0  0  0  0  0  0  0  0  0
    8.5825    0.1692   -4.3204 C   0  0  0  0  0  0  0  0  0  0  0  0
    0.5336   -0.1393    1.0616 H   0  0  0  0  0  0  0  0  0  0  0  0
    0.5134   -0.9383   -0.5220 H   0  0  0  0  0  0  0  0  0  0  0  0
    0.5120    0.8333   -0.4219 H   0  0  0  0  0  0  0  0  0  0  0  0
    2.7923   -0.9906    0.5054 H   0  0  0  0  0  0  0  0  0  0  0  0
    2.7917    0.7717    0.6071 H   0  0  0  0  0  0  0  0  0  0  0  0
    2.5774    0.9157   -1.8885 H   0  0  0  0  0  0  0  0  0  0  0  0
    2.5767   -0.8471   -1.9884 H   0  0  0  0  0  0  0  0  0  0  0  0
    4.8361   -0.9086   -0.9252 H   0  0  0  0  0  0  0  0  0  0  0  0
    4.8495    0.8542   -0.8360 H   0  0  0  0  0  0  0  0  0  0  0  0
    4.6296    0.9873   -3.3313 H   0  0  0  0  0  0  0  0  0  0  0  0
    4.6212   -0.7800   -3.4103 H   0  0  0  0  0  0  0  0  0  0  0  0
    6.9091    0.9164   -2.2753 H   0  0  0  0  0  0  0  0  0  0  0  0
    6.6658   -1.8771   -2.7528 H   0  0  0  0  0  0  0  0  0  0  0  0
    6.6834    1.0692   -4.7763 H   0  0  0  0  0  0  0  0  0  0  0  0
    6.7083   -0.6969   -4.8776 H   0  0  0  0  0  0  0  0  0  0  0  0
    8.9741    1.0232   -3.7588 H   0  0  0  0  0  0  0  0  0  0  0  0
    8.9427    0.2392   -5.3504 H   0  0  0  0  0  0  0  0  0  0  0  0
    8.9907   -0.7464   -3.8808 H   0  0  0  0  0  0  0  0  0  0  0  0
  1  2  1  0  0  0  0
  1 10  1  0  0  0  0
  1 11  1  0  0  0  0
  1 12  1  0  0  0  0
  2  3  1  0  0  0  0
  2 13  1  0  0  0  0
  2 14  1  0  0  0  0
  3  4  1  0  0  0  0
  3 15  1  0  0  0  0
  3 16  1  0  0  0  0
  4  5  1  0  0  0  0
  4 17  1  0  0  0  0
  4 18  1  0  0  0  0
  5  6  1  0  0  0  0
  5 19  1  0  0  0  0
  5 20  1  0  0  0  0
  6  7  1  0  0  0  0
  6  8  1  0  0  0  0
  6 21  1  0  0  0  0
  7 22  1  0  0  0  0
  8  9  1  0  0  0  0
  8 23  1  0  0  0  0
  8 24  1  0  0  0  0
  9 25  1  0  0  0  0
  9 26  1  0  0  0  0
  9 27  1  0  0  0  0
M  END
$$$$
