
 OpenBabel07202215583D

 35 34  0  0  0  0  0  0  0  0999 V2000
    1.0524    0.0665   -0.0518 C   0  0  0  0  0  0  0  0  0  0  0  0
    2.5688    0.0632   -0.0449 C   0  0  0  0  0  0  0  0  0  0  0  0
    3.0932   -0.5546    1.2441 C   0  0  0  0  0  0  0  0  0  0  0  0
    4.6146   -0.5601    1.2555 C   0  0  0  0  0  0  0  0  0  0  0  0
    5.1291   -1.1791    2.5470 C   0  0  0  0  0  0  0  0  0  0  0  0
    6.6501   -1.1869    2.5633 C   0  0  0  0  0  0  0  0  0  0  0  0
    7.1667   -1.8073    3.8576 C   0  0  0  0  0  0  0  0  0  0  0  0
    8.6889   -1.8117    3.8668 C   0  0  0  0  0  0  0  0  0  0  0  0
    9.2630   -2.4239    5.1441 C   0  0  0  0  0  0  0  0  0  0  0  0
   10.7757   -2.3983    5.0906 C   0  0  0  0  0  0  0  0  0  0  0  0
   11.4321   -1.9508    4.1571 O   0  0  0  0  0  0  0  0  0  0  0  0
   11.3150   -2.9390    6.2188 O   0  0  0  0  0  0  0  0  0  0  0  0
   12.7476   -2.9388    6.2184 C   0  0  0  0  0  0  0  0  0  0  0  0
    0.6784    0.5105   -0.9780 H   0  0  0  0  0  0  0  0  0  0  0  0
    0.6632    0.6461    0.7913 H   0  0  0  0  0  0  0  0  0  0  0  0
    0.6632   -0.9538    0.0245 H   0  0  0  0  0  0  0  0  0  0  0  0
    2.9394    1.0901   -0.1445 H   0  0  0  0  0  0  0  0  0  0  0  0
    2.9394   -0.5024   -0.9078 H   0  0  0  0  0  0  0  0  0  0  0  0
    2.7196   -1.5813    1.3441 H   0  0  0  0  0  0  0  0  0  0  0  0
    2.7196    0.0105    2.1071 H   0  0  0  0  0  0  0  0  0  0  0  0
    4.9913    0.4656    1.1587 H   0  0  0  0  0  0  0  0  0  0  0  0
    4.9913   -1.1271    0.3954 H   0  0  0  0  0  0  0  0  0  0  0  0
    4.7516   -2.2045    2.6432 H   0  0  0  0  0  0  0  0  0  0  0  0
    4.7516   -0.6119    3.4066 H   0  0  0  0  0  0  0  0  0  0  0  0
    7.0256   -0.1607    2.4638 H   0  0  0  0  0  0  0  0  0  0  0  0
    7.0256   -1.7521    1.7010 H   0  0  0  0  0  0  0  0  0  0  0  0
    6.7883   -2.8321    3.9510 H   0  0  0  0  0  0  0  0  0  0  0  0
    6.7883   -1.2382    4.7150 H   0  0  0  0  0  0  0  0  0  0  0  0
    9.0549   -0.7828    3.7565 H   0  0  0  0  0  0  0  0  0  0  0  0
    9.0549   -2.3702    2.9956 H   0  0  0  0  0  0  0  0  0  0  0  0
    8.9226   -3.4607    5.2429 H   0  0  0  0  0  0  0  0  0  0  0  0
    8.9226   -1.8514    6.0142 H   0  0  0  0  0  0  0  0  0  0  0  0
   13.0959   -3.3869    7.1532 H   0  0  0  0  0  0  0  0  0  0  0  0
   13.1336   -1.9151    6.1639 H   0  0  0  0  0  0  0  0  0  0  0  0
   13.1336   -3.5376    5.3862 H   0  0  0  0  0  0  0  0  0  0  0  0
  1  2  1  0  0  0  0
  1 14  1  0  0  0  0
  1 15  1  0  0  0  0
  1 16  1  0  0  0  0
  2  3  1  0  0  0  0
  2 17  1  0  0  0  0
  2 18  1  0  0  0  0
  3  4  1  0  0  0  0
  3 19  1  0  0  0  0
  3 20  1  0  0  0  0
  4  5  1  0  0  0  0
  4 21  1  0  0  0  0
  4 22  1  0  0  0  0
  5  6  1  0  0  0  0
  5 23  1  0  0  0  0
  5 24  1  0  0  0  0
  6  7  1  0  0  0  0
  6 25  1  0  0  0  0
  6 26  1  0  0  0  0
  7  8  1  0  0  0  0
  7 27  1  0  0  0  0
  7 28  1  0  0  0  0
  8  9  1  0  0  0  0
  8 29  1  0  0  0  0
  8 30  1  0  0  0  0
  9 10  1  0  0  0  0
  9 31  1  0  0  0  0
  9 32  1  0  0  0  0
 10 11  2  0  0  0  0
 10 12  1  0  0  0  0
 12 13  1  0  0  0  0
 13 33  1  0  0  0  0
 13 34  1  0  0  0  0
 13 35  1  0  0  0  0
M  END
$$$$
