
 OpenBabel07222214433D

 33 32  0  0  0  0  0  0  0  0999 V2000
    1.0272   -0.0212   -0.0691 C   0  0  0  0  0  0  0  0  0  0  0  0
    2.5446   -0.0314   -0.0669 C   0  0  0  0  0  0  0  0  0  0  0  0
    3.0735   -1.4257    0.2466 C   0  0  0  0  0  0  0  0  0  0  0  0
    4.5962   -1.4390    0.2496 C   0  0  0  0  0  0  0  0  0  0  0  0
    5.1143   -2.8359    0.5636 C   0  0  0  0  0  0  0  0  0  0  0  0
    6.6360   -2.8501    0.5668 C   0  0  0  0  0  0  0  0  0  0  0  0
    7.1543   -4.2469    0.8807 C   0  0  0  0  0  0  0  0  0  0  0  0
    8.6770   -4.2593    0.8834 C   0  0  0  0  0  0  0  0  0  0  0  0
    9.2060   -5.6516    1.1973 C   0  0  0  0  0  0  0  0  0  0  0  0
   10.7259   -5.6638    1.2021 C   0  0  0  0  0  0  0  0  0  0  0  0
   11.1935   -6.9734    1.4914 O   0  0  0  0  0  0  0  0  0  0  0  0
    0.6550    0.9819   -0.2947 H   0  0  0  0  0  0  0  0  0  0  0  0
    0.6353   -0.3221    0.9077 H   0  0  0  0  0  0  0  0  0  0  0  0
    0.6353   -0.7113   -0.8233 H   0  0  0  0  0  0  0  0  0  0  0  0
    2.9142    0.6839    0.6772 H   0  0  0  0  0  0  0  0  0  0  0  0
    2.9142    0.2966   -1.0454 H   0  0  0  0  0  0  0  0  0  0  0  0
    2.7006   -2.1406   -0.4972 H   0  0  0  0  0  0  0  0  0  0  0  0
    2.7007   -1.7535    1.2248 H   0  0  0  0  0  0  0  0  0  0  0  0
    4.9737   -0.7279    0.9947 H   0  0  0  0  0  0  0  0  0  0  0  0
    4.9737   -1.1152   -0.7281 H   0  0  0  0  0  0  0  0  0  0  0  0
    4.7383   -3.5483   -0.1810 H   0  0  0  0  0  0  0  0  0  0  0  0
    4.7384   -3.1610    1.5416 H   0  0  0  0  0  0  0  0  0  0  0  0
    7.0120   -2.1378    1.3114 H   0  0  0  0  0  0  0  0  0  0  0  0
    7.0119   -2.5250   -0.4111 H   0  0  0  0  0  0  0  0  0  0  0  0
    6.7771   -4.9582    0.1357 H   0  0  0  0  0  0  0  0  0  0  0  0
    6.7771   -4.5708    1.8584 H   0  0  0  0  0  0  0  0  0  0  0  0
    9.0494   -3.5442    1.6272 H   0  0  0  0  0  0  0  0  0  0  0  0
    9.0497   -3.9319   -0.0949 H   0  0  0  0  0  0  0  0  0  0  0  0
    8.8339   -6.3761    0.4622 H   0  0  0  0  0  0  0  0  0  0  0  0
    8.8293   -5.9901    2.1706 H   0  0  0  0  0  0  0  0  0  0  0  0
   11.1244   -4.9763    1.9552 H   0  0  0  0  0  0  0  0  0  0  0  0
   11.1186   -5.3678    0.2248 H   0  0  0  0  0  0  0  0  0  0  0  0
   10.8425   -7.2216    2.3609 H   0  0  0  0  0  0  0  0  0  0  0  0
  1  2  1  0  0  0  0
  1 12  1  0  0  0  0
  1 13  1  0  0  0  0
  1 14  1  0  0  0  0
  2  3  1  0  0  0  0
  2 15  1  0  0  0  0
  2 16  1  0  0  0  0
  3  4  1  0  0  0  0
  3 17  1  0  0  0  0
  3 18  1  0  0  0  0
  4  5  1  0  0  0  0
  4 19  1  0  0  0  0
  4 20  1  0  0  0  0
  5  6  1  0  0  0  0
  5 21  1  0  0  0  0
  5 22  1  0  0  0  0
  6  7  1  0  0  0  0
  6 23  1  0  0  0  0
  6 24  1  0  0  0  0
  7  8  1  0  0  0  0
  7 25  1  0  0  0  0
  7 26  1  0  0  0  0
  8  9  1  0  0  0  0
  8 27  1  0  0  0  0
  8 28  1  0  0  0  0
  9 10  1  0  0  0  0
  9 29  1  0  0  0  0
  9 30  1  0  0  0  0
 10 11  1  0  0  0  0
 10 31  1  0  0  0  0
 10 32  1  0  0  0  0
 11 33  1  0  0  0  0
M  END
$$$$
