
 OpenBabel07202215583D

 18 18  0  0  0  0  0  0  0  0999 V2000
    0.9205   -0.0313    0.0222 C   0  0  0  0  0  0  0  0  0  0  0  0
    2.4431   -0.0577    0.0711 C   0  0  0  0  0  0  0  0  0  0  0  0
    2.9840   -1.1028    1.0506 C   0  0  0  0  0  0  0  0  0  0  0  0
    3.0476   -2.4869    0.4384 C   0  0  0  0  0  0  0  0  0  0  0  0
    2.7053   -3.4054    1.5817 C   0  0  0  0  0  0  0  0  0  0  0  0
    1.9405   -2.5213    2.5154 C   0  0  0  0  0  0  0  0  0  0  0  0
    1.2758   -2.9038    3.4624 O   0  0  0  0  0  0  0  0  0  0  0  0
    2.1364   -1.2119    2.1972 O   0  0  0  0  0  0  0  0  0  0  0  0
    0.5698    0.7069   -0.7037 H   0  0  0  0  0  0  0  0  0  0  0  0
    0.5055    0.2424    0.9983 H   0  0  0  0  0  0  0  0  0  0  0  0
    0.5178   -1.0097   -0.2567 H   0  0  0  0  0  0  0  0  0  0  0  0
    2.7920    0.9356    0.3769 H   0  0  0  0  0  0  0  0  0  0  0  0
    2.8501   -0.2355   -0.9323 H   0  0  0  0  0  0  0  0  0  0  0  0
    3.9759   -0.7971    1.4033 H   0  0  0  0  0  0  0  0  0  0  0  0
    4.0344   -2.6969    0.0129 H   0  0  0  0  0  0  0  0  0  0  0  0
    2.3201   -2.6081   -0.3728 H   0  0  0  0  0  0  0  0  0  0  0  0
    3.6033   -3.7643    2.0899 H   0  0  0  0  0  0  0  0  0  0  0  0
    2.0894   -4.2431    1.2453 H   0  0  0  0  0  0  0  0  0  0  0  0
  1  2  1  0  0  0  0
  1  9  1  0  0  0  0
  1 10  1  0  0  0  0
  1 11  1  0  0  0  0
  2  3  1  0  0  0  0
  2 12  1  0  0  0  0
  2 13  1  0  0  0  0
  3  4  1  0  0  0  0
  3  8  1  0  0  0  0
  3 14  1  0  0  0  0
  4  5  1  0  0  0  0
  4 15  1  0  0  0  0
  4 16  1  0  0  0  0
  5  6  1  0  0  0  0
  5 17  1  0  0  0  0
  5 18  1  0  0  0  0
  6  7  2  0  0  0  0
  6  8  1  0  0  0  0
M  END
$$$$
