
 OpenBabel07122215493D

 29 28  0  0  1  0  0  0  0  0999 V2000
    2.9902    1.5250   -0.3149 C   0  0  0  0  0  0  0  0  0  0  0  0
    2.5063    0.1164    0.0412 C   0  0  2  0  0  0  0  0  0  0  0  0
    0.9656    0.0926    0.0454 C   0  0  0  0  0  0  0  0  0  0  0  0
    0.4461   -0.5116   -1.2500 C   0  0  0  0  0  0  0  0  0  0  0  0
   -1.0500   -0.5398   -1.3033 C   0  0  0  0  0  0  0  0  0  0  0  0
   -1.7333   -1.0472   -2.3447 C   0  0  0  0  0  0  0  0  0  0  0  0
   -1.0514   -1.6327   -3.5525 C   0  0  0  0  0  0  0  0  0  0  0  0
   -3.2355   -1.0543   -2.3553 C   0  0  0  0  0  0  0  0  0  0  0  0
    3.0293   -0.3330    1.4086 C   0  0  0  0  0  0  0  0  0  0  0  0
    4.5334   -0.3908    1.4582 C   0  0  0  0  0  0  0  0  0  0  0  0
    5.1537   -0.6929    2.4767 O   0  0  0  0  0  0  0  0  0  0  0  0
    4.0810    1.5806   -0.3607 H   0  0  0  0  0  0  0  0  0  0  0  0
    2.6495    2.2498    0.4318 H   0  0  0  0  0  0  0  0  0  0  0  0
    2.6081    1.8325   -1.2935 H   0  0  0  0  0  0  0  0  0  0  0  0
    2.8938   -0.5785   -0.7175 H   0  0  0  0  0  0  0  0  0  0  0  0
    0.5807   -0.4954    0.8877 H   0  0  0  0  0  0  0  0  0  0  0  0
    0.5630    1.1070    0.1638 H   0  0  0  0  0  0  0  0  0  0  0  0
    0.8246   -1.5390   -1.3305 H   0  0  0  0  0  0  0  0  0  0  0  0
    0.8302    0.0679   -2.0981 H   0  0  0  0  0  0  0  0  0  0  0  0
   -1.5927   -0.1301   -0.4526 H   0  0  0  0  0  0  0  0  0  0  0  0
    0.0408   -1.6002   -3.4851 H   0  0  0  0  0  0  0  0  0  0  0  0
   -1.3258   -1.0763   -4.4527 H   0  0  0  0  0  0  0  0  0  0  0  0
   -1.3259   -2.6841   -3.6739 H   0  0  0  0  0  0  0  0  0  0  0  0
   -3.6538   -0.6133   -1.4432 H   0  0  0  0  0  0  0  0  0  0  0  0
   -3.6122   -2.0791   -2.4289 H   0  0  0  0  0  0  0  0  0  0  0  0
   -3.6134   -0.4764   -3.2042 H   0  0  0  0  0  0  0  0  0  0  0  0
    2.6609   -1.3437    1.6247 H   0  0  0  0  0  0  0  0  0  0  0  0
    2.6763    0.3447    2.1922 H   0  0  0  0  0  0  0  0  0  0  0  0
    5.0746   -0.1619    0.5265 H   0  0  0  0  0  0  0  0  0  0  0  0
  1 12  1  0  0  0  0
  1 13  1  0  0  0  0
  1 14  1  0  0  0  0
  2  9  1  0  0  0  0
  2  3  1  0  0  0  0
  2  1  1  0  0  0  0
  2 15  1  6  0  0  0
  3  4  1  0  0  0  0
  3 16  1  0  0  0  0
  3 17  1  0  0  0  0
  4  5  1  0  0  0  0
  4 18  1  0  0  0  0
  4 19  1  0  0  0  0
  5  6  2  0  0  0  0
  5 20  1  0  0  0  0
  6  7  1  0  0  0  0
  6  8  1  0  0  0  0
  7 21  1  0  0  0  0
  7 22  1  0  0  0  0
  7 23  1  0  0  0  0
  8 24  1  0  0  0  0
  8 25  1  0  0  0  0
  8 26  1  0  0  0  0
  9 10  1  0  0  0  0
  9 27  1  0  0  0  0
  9 28  1  0  0  0  0
 10 11  2  0  0  0  0
 10 29  1  0  0  0  0
M  END
$$$$
