
 OpenBabel07202215583D

  9  8  0  0  0  0  0  0  0  0999 V2000
    1.0438    0.0640    0.0064 C   0  0  0  0  0  0  0  0  0  0  0  0
    2.5610    0.0559    0.0036 C   0  0  0  0  0  0  0  0  0  0  0  0
    3.1984   -1.5250   -0.6183 S   0  0  0  0  0  0  0  0  0  0  0  0
    0.6780    1.0348    0.3574 H   0  0  0  0  0  0  0  0  0  0  0  0
    0.6385   -0.7030    0.6746 H   0  0  0  0  0  0  0  0  0  0  0  0
    0.6381   -0.0985   -0.9981 H   0  0  0  0  0  0  0  0  0  0  0  0
    2.9421    0.2176    1.0168 H   0  0  0  0  0  0  0  0  0  0  0  0
    2.9403    0.8593   -0.6343 H   0  0  0  0  0  0  0  0  0  0  0  0
    2.6489   -2.3019    0.3266 H   0  0  0  0  0  0  0  0  0  0  0  0
  1  2  1  0  0  0  0
  1  4  1  0  0  0  0
  1  5  1  0  0  0  0
  1  6  1  0  0  0  0
  2  3  1  0  0  0  0
  2  7  1  0  0  0  0
  2  8  1  0  0  0  0
  3  9  1  0  0  0  0
M  END
$$$$
