
 OpenBabel07202215583D

 26 25  0  0  0  0  0  0  0  0999 V2000
    0.9160    0.0252    0.0554 C   0  0  0  0  0  0  0  0  0  0  0  0
    2.4320    0.0255    0.0640 C   0  0  0  0  0  0  0  0  0  0  0  0
    2.9526    0.0792    1.4936 C   0  0  0  0  0  0  0  0  0  0  0  0
    4.4717    0.0798    1.5085 C   0  0  0  0  0  0  0  0  0  0  0  0
    4.9882    0.1335    2.9404 C   0  0  0  0  0  0  0  0  0  0  0  0
    6.5077    0.1331    2.9282 C   0  0  0  0  0  0  0  0  0  0  0  0
    7.0851    0.1858    4.3320 C   0  0  0  0  0  0  0  0  0  0  0  0
    8.5951    0.1886    4.4066 C   0  0  0  0  0  0  0  0  0  0  0  0
    9.2729    0.1449    3.2434 O   0  0  0  0  0  0  0  0  0  0  0  0
    9.1873    0.2288    5.4794 O   0  0  0  0  0  0  0  0  0  0  0  0
    0.5423   -0.0133   -0.9710 H   0  0  0  0  0  0  0  0  0  0  0  0
    0.5270    0.9308    0.5318 H   0  0  0  0  0  0  0  0  0  0  0  0
    0.5270   -0.8421    0.5983 H   0  0  0  0  0  0  0  0  0  0  0  0
    2.8035    0.8879   -0.5021 H   0  0  0  0  0  0  0  0  0  0  0  0
    2.8035   -0.8768   -0.4358 H   0  0  0  0  0  0  0  0  0  0  0  0
    2.5794   -0.7831    2.0595 H   0  0  0  0  0  0  0  0  0  0  0  0
    2.5794    0.9815    1.9932 H   0  0  0  0  0  0  0  0  0  0  0  0
    4.8497    0.9417    0.9444 H   0  0  0  0  0  0  0  0  0  0  0  0
    4.8497   -0.8220    1.0106 H   0  0  0  0  0  0  0  0  0  0  0  0
    4.6160   -0.7298    3.5050 H   0  0  0  0  0  0  0  0  0  0  0  0
    4.6160    1.0367    3.4387 H   0  0  0  0  0  0  0  0  0  0  0  0
    6.8606    0.9972    2.3518 H   0  0  0  0  0  0  0  0  0  0  0  0
    6.8606   -0.7718    2.4182 H   0  0  0  0  0  0  0  0  0  0  0  0
    6.7283   -0.6813    4.9011 H   0  0  0  0  0  0  0  0  0  0  0  0
    6.7283    1.0930    4.8345 H   0  0  0  0  0  0  0  0  0  0  0  0
    8.7566    0.1139    2.4189 H   0  0  0  0  0  0  0  0  0  0  0  0
  1  2  1  0  0  0  0
  1 11  1  0  0  0  0
  1 12  1  0  0  0  0
  1 13  1  0  0  0  0
  2  3  1  0  0  0  0
  2 14  1  0  0  0  0
  2 15  1  0  0  0  0
  3  4  1  0  0  0  0
  3 16  1  0  0  0  0
  3 17  1  0  0  0  0
  4  5  1  0  0  0  0
  4 18  1  0  0  0  0
  4 19  1  0  0  0  0
  5  6  1  0  0  0  0
  5 20  1  0  0  0  0
  5 21  1  0  0  0  0
  6  7  1  0  0  0  0
  6 22  1  0  0  0  0
  6 23  1  0  0  0  0
  7  8  1  0  0  0  0
  7 24  1  0  0  0  0
  7 25  1  0  0  0  0
  8  9  1  0  0  0  0
  8 10  2  0  0  0  0
  9 26  1  0  0  0  0
M  END
$$$$
