
 OpenBabel07222214433D

 35 35  0  0  0  0  0  0  0  0999 V2000
    1.0378   -0.0401    0.1926 C   0  0  0  0  0  0  0  0  0  0  0  0
    2.5732   -0.0120    0.1661 C   0  0  0  0  0  0  0  0  0  0  0  0
    3.1184    1.2439   -0.5396 C   0  0  0  0  0  0  0  0  0  0  0  0
    2.6387    1.3513   -1.9654 C   0  0  0  0  0  0  0  0  0  0  0  0
    2.4315    2.5977   -2.5565 C   0  0  0  0  0  0  0  0  0  0  0  0
    1.8108    2.6777   -3.8036 C   0  0  0  0  0  0  0  0  0  0  0  0
    1.4605    1.5166   -4.5182 C   0  0  0  0  0  0  0  0  0  0  0  0
    1.6927    0.2804   -3.9165 C   0  0  0  0  0  0  0  0  0  0  0  0
    2.3145    0.2000   -2.6884 C   0  0  0  0  0  0  0  0  0  0  0  0
    0.9358    1.5985   -5.9493 C   0  0  0  0  0  0  0  0  0  0  0  0
   -0.3815    2.3862   -5.9892 C   0  0  0  0  0  0  0  0  0  0  0  0
    1.9998    2.3062   -6.8109 C   0  0  0  0  0  0  0  0  0  0  0  0
    0.6884    0.2013   -6.5623 C   0  0  0  0  0  0  0  0  0  0  0  0
    3.1203   -0.0943    1.5635 C   0  0  0  0  0  0  0  0  0  0  0  0
    4.3294   -0.1121    1.8092 O   0  0  0  0  0  0  0  0  0  0  0  0
    0.5916   -0.0032   -0.8069 H   0  0  0  0  0  0  0  0  0  0  0  0
    0.6381    0.8105    0.7522 H   0  0  0  0  0  0  0  0  0  0  0  0
    0.6753   -0.9625    0.6553 H   0  0  0  0  0  0  0  0  0  0  0  0
    2.9333   -0.9242   -0.3255 H   0  0  0  0  0  0  0  0  0  0  0  0
    4.2150    1.2603   -0.5336 H   0  0  0  0  0  0  0  0  0  0  0  0
    2.7839    2.1299    0.0181 H   0  0  0  0  0  0  0  0  0  0  0  0
    2.7324    3.5130   -2.0519 H   0  0  0  0  0  0  0  0  0  0  0  0
    1.6070    3.6630   -4.2170 H   0  0  0  0  0  0  0  0  0  0  0  0
    1.4043   -0.6612   -4.3717 H   0  0  0  0  0  0  0  0  0  0  0  0
    2.4704   -0.7976   -2.2921 H   0  0  0  0  0  0  0  0  0  0  0  0
   -0.2594    3.4105   -5.6210 H   0  0  0  0  0  0  0  0  0  0  0  0
   -1.1483    1.9043   -5.3713 H   0  0  0  0  0  0  0  0  0  0  0  0
   -0.7632    2.4518   -7.0137 H   0  0  0  0  0  0  0  0  0  0  0  0
    2.1976    3.3272   -6.4651 H   0  0  0  0  0  0  0  0  0  0  0  0
    1.6805    2.3719   -7.8553 H   0  0  0  0  0  0  0  0  0  0  0  0
    2.9537    1.7645   -6.7810 H   0  0  0  0  0  0  0  0  0  0  0  0
   -0.0704   -0.3532   -5.9951 H   0  0  0  0  0  0  0  0  0  0  0  0
    1.6088   -0.3983   -6.5670 H   0  0  0  0  0  0  0  0  0  0  0  0
    0.3416    0.2663   -7.5966 H   0  0  0  0  0  0  0  0  0  0  0  0
    2.3839   -0.1746    2.3761 H   0  0  0  0  0  0  0  0  0  0  0  0
  1  2  1  0  0  0  0
  1 16  1  0  0  0  0
  1 17  1  0  0  0  0
  1 18  1  0  0  0  0
  2  3  1  0  0  0  0
  2 14  1  0  0  0  0
  2 19  1  0  0  0  0
  3  4  1  0  0  0  0
  3 20  1  0  0  0  0
  3 21  1  0  0  0  0
  4  5  1  0  0  0  0
  4  9  2  0  0  0  0
  5  6  2  0  0  0  0
  5 22  1  0  0  0  0
  6  7  1  0  0  0  0
  6 23  1  0  0  0  0
  7  8  2  0  0  0  0
  7 10  1  0  0  0  0
  8  9  1  0  0  0  0
  8 24  1  0  0  0  0
  9 25  1  0  0  0  0
 10 11  1  0  0  0  0
 10 12  1  0  0  0  0
 10 13  1  0  0  0  0
 11 26  1  0  0  0  0
 11 27  1  0  0  0  0
 11 28  1  0  0  0  0
 12 29  1  0  0  0  0
 12 30  1  0  0  0  0
 12 31  1  0  0  0  0
 13 32  1  0  0  0  0
 13 33  1  0  0  0  0
 13 34  1  0  0  0  0
 14 15  2  0  0  0  0
 14 35  1  0  0  0  0
M  END
$$$$
