
 OpenBabel07222214433D

 38 37  0  0  0  0  0  0  0  0999 V2000
    0.9317    0.0063    0.0733 C   0  0  0  0  0  0  0  0  0  0  0  0
    2.4480    0.0114    0.0791 C   0  0  0  0  0  0  0  0  0  0  0  0
    2.9722    0.9640    1.1448 C   0  0  0  0  0  0  0  0  0  0  0  0
    4.4933    0.9718    1.1535 C   0  0  0  0  0  0  0  0  0  0  0  0
    5.0093    1.9257    2.2207 C   0  0  0  0  0  0  0  0  0  0  0  0
    6.5308    1.9343    2.2303 C   0  0  0  0  0  0  0  0  0  0  0  0
    7.0498    2.8888    3.2981 C   0  0  0  0  0  0  0  0  0  0  0  0
    8.5744    2.9012    3.3120 C   0  0  0  0  0  0  0  0  0  0  0  0
    9.1066    3.8554    4.3795 C   0  0  0  0  0  0  0  0  0  0  0  0
   10.6328    3.8705    4.3964 C   0  0  0  0  0  0  0  0  0  0  0  0
   11.0965    4.7779    5.4116 O   0  0  0  0  0  0  0  0  0  0  0  0
   12.4541    4.8575    5.5006 C   0  0  0  0  0  0  0  0  0  0  0  0
   13.2418    4.2312    4.8000 O   0  0  0  0  0  0  0  0  0  0  0  0
   12.8936    5.8145    6.5713 C   0  0  0  0  0  0  0  0  0  0  0  0
    0.5577   -0.6782   -0.6924 H   0  0  0  0  0  0  0  0  0  0  0  0
    0.5426    1.0075   -0.1377 H   0  0  0  0  0  0  0  0  0  0  0  0
    0.5426   -0.3153    1.0447 H   0  0  0  0  0  0  0  0  0  0  0  0
    2.8187    0.3142   -0.9072 H   0  0  0  0  0  0  0  0  0  0  0  0
    2.8187   -1.0025    0.2697 H   0  0  0  0  0  0  0  0  0  0  0  0
    2.5988    0.6619    2.1311 H   0  0  0  0  0  0  0  0  0  0  0  0
    2.5988    1.9780    0.9547 H   0  0  0  0  0  0  0  0  0  0  0  0
    4.8698    1.2767    0.1695 H   0  0  0  0  0  0  0  0  0  0  0  0
    4.8698   -0.0401    1.3465 H   0  0  0  0  0  0  0  0  0  0  0  0
    4.6323    1.6212    3.2048 H   0  0  0  0  0  0  0  0  0  0  0  0
    4.6323    2.9377    2.0281 H   0  0  0  0  0  0  0  0  0  0  0  0
    6.9046    2.2373    1.2445 H   0  0  0  0  0  0  0  0  0  0  0  0
    6.9046    0.9208    2.4212 H   0  0  0  0  0  0  0  0  0  0  0  0
    6.6699    2.5824    4.2804 H   0  0  0  0  0  0  0  0  0  0  0  0
    6.6699    3.8991    3.1035 H   0  0  0  0  0  0  0  0  0  0  0  0
    8.9450    3.2015    2.3241 H   0  0  0  0  0  0  0  0  0  0  0  0
    8.9450    1.8859    3.5001 H   0  0  0  0  0  0  0  0  0  0  0  0
    8.7285    3.5623    5.3666 H   0  0  0  0  0  0  0  0  0  0  0  0
    8.7285    4.8691    4.1986 H   0  0  0  0  0  0  0  0  0  0  0  0
   11.0060    4.1966    3.4182 H   0  0  0  0  0  0  0  0  0  0  0  0
   11.0060    2.8620    4.6112 H   0  0  0  0  0  0  0  0  0  0  0  0
   12.0406    6.2702    7.0811 H   0  0  0  0  0  0  0  0  0  0  0  0
   13.4921    6.6112    6.1201 H   0  0  0  0  0  0  0  0  0  0  0  0
   13.4921    5.2771    7.3126 H   0  0  0  0  0  0  0  0  0  0  0  0
  1  2  1  0  0  0  0
  1 15  1  0  0  0  0
  1 16  1  0  0  0  0
  1 17  1  0  0  0  0
  2  3  1  0  0  0  0
  2 18  1  0  0  0  0
  2 19  1  0  0  0  0
  3  4  1  0  0  0  0
  3 20  1  0  0  0  0
  3 21  1  0  0  0  0
  4  5  1  0  0  0  0
  4 22  1  0  0  0  0
  4 23  1  0  0  0  0
  5  6  1  0  0  0  0
  5 24  1  0  0  0  0
  5 25  1  0  0  0  0
  6  7  1  0  0  0  0
  6 26  1  0  0  0  0
  6 27  1  0  0  0  0
  7  8  1  0  0  0  0
  7 28  1  0  0  0  0
  7 29  1  0  0  0  0
  8  9  1  0  0  0  0
  8 30  1  0  0  0  0
  8 31  1  0  0  0  0
  9 10  1  0  0  0  0
  9 32  1  0  0  0  0
  9 33  1  0  0  0  0
 10 11  1  0  0  0  0
 10 34  1  0  0  0  0
 10 35  1  0  0  0  0
 11 12  1  0  0  0  0
 12 13  2  0  0  0  0
 12 14  1  0  0  0  0
 14 36  1  0  0  0  0
 14 37  1  0  0  0  0
 14 38  1  0  0  0  0
M  END
$$$$
