
 OpenBabel07222214443D

 26 26  0  0  0  0  0  0  0  0999 V2000
    1.0424    0.0290   -0.0655 C   0  0  0  0  0  0  0  0  0  0  0  0
    2.5442   -0.0521   -0.0658 C   0  0  0  0  0  0  0  0  0  0  0  0
    3.2455    1.1752   -0.0647 C   0  0  0  0  0  0  0  0  0  0  0  0
    4.6347    1.2037   -0.0632 C   0  0  0  0  0  0  0  0  0  0  0  0
    5.3737    0.0201   -0.0594 C   0  0  0  0  0  0  0  0  0  0  0  0
    4.6766   -1.2121   -0.0611 C   0  0  0  0  0  0  0  0  0  0  0  0
    3.2589   -1.2804   -0.0664 C   0  0  0  0  0  0  0  0  0  0  0  0
    2.5909   -2.6527   -0.0735 C   0  0  0  0  0  0  0  0  0  0  0  0
    3.1719   -3.7292   -0.0757 O   0  0  0  0  0  0  0  0  0  0  0  0
    1.2347   -2.5649   -0.0791 O   0  0  0  0  0  0  0  0  0  0  0  0
    0.5297   -3.8115   -0.0874 C   0  0  0  0  0  0  0  0  0  0  0  0
    5.3918   -2.3835   -0.0567 O   0  0  0  0  0  0  0  0  0  0  0  0
    6.8771    0.0832   -0.0528 C   0  0  0  0  0  0  0  0  0  0  0  0
    5.3001    2.3987   -0.0651 O   0  0  0  0  0  0  0  0  0  0  0  0
    0.6841    1.0627   -0.0628 H   0  0  0  0  0  0  0  0  0  0  0  0
    0.6430   -0.4449    0.8368 H   0  0  0  0  0  0  0  0  0  0  0  0
    0.6424   -0.4402   -0.9698 H   0  0  0  0  0  0  0  0  0  0  0  0
    2.6909    2.1114   -0.0646 H   0  0  0  0  0  0  0  0  0  0  0  0
   -0.5437   -3.5952   -0.0913 H   0  0  0  0  0  0  0  0  0  0  0  0
    0.7578   -4.3896    0.8132 H   0  0  0  0  0  0  0  0  0  0  0  0
    0.7657   -4.3822   -0.9907 H   0  0  0  0  0  0  0  0  0  0  0  0
    6.3460   -2.2255   -0.0526 H   0  0  0  0  0  0  0  0  0  0  0  0
    7.2610    1.1079   -0.0520 H   0  0  0  0  0  0  0  0  0  0  0  0
    7.2752   -0.4057   -0.9472 H   0  0  0  0  0  0  0  0  0  0  0  0
    7.2669   -0.4036    0.8464 H   0  0  0  0  0  0  0  0  0  0  0  0
    4.6690    3.1360   -0.0718 H   0  0  0  0  0  0  0  0  0  0  0  0
  1  2  1  0  0  0  0
  1 15  1  0  0  0  0
  1 16  1  0  0  0  0
  1 17  1  0  0  0  0
  2  3  2  0  0  0  0
  2  7  1  0  0  0  0
  3  4  1  0  0  0  0
  3 18  1  0  0  0  0
  4  5  2  0  0  0  0
  4 14  1  0  0  0  0
  5  6  1  0  0  0  0
  5 13  1  0  0  0  0
  6  7  2  0  0  0  0
  6 12  1  0  0  0  0
  7  8  1  0  0  0  0
  8  9  2  0  0  0  0
  8 10  1  0  0  0  0
 10 11  1  0  0  0  0
 11 19  1  0  0  0  0
 11 20  1  0  0  0  0
 11 21  1  0  0  0  0
 12 22  1  0  0  0  0
 13 23  1  0  0  0  0
 13 24  1  0  0  0  0
 13 25  1  0  0  0  0
 14 26  1  0  0  0  0
M  END
$$$$
