
 OpenBabel07202215583D

 27 28  0  0  1  0  0  0  0  0999 V2000
    1.0939   -0.1728   -0.3984 C   0  0  0  0  0  0  0  0  0  0  0  0
    2.5971   -0.2275   -0.0522 C   0  0  2  0  0  0  0  0  0  0  0  0
    3.2852   -1.4261   -0.6605 C   0  0  0  0  0  0  0  0  0  0  0  0
    4.6781   -1.2767   -0.0653 C   0  0  0  0  0  0  0  0  0  0  0  0
    4.5895    0.0675    0.7853 C   0  0  2  0  0  0  0  0  0  0  0  0
    3.1529   -0.0378    1.4482 C   0  0  0  0  0  0  0  0  0  0  0  0
    3.7415   -0.4896    2.8371 C   0  0  0  0  0  0  0  0  0  0  0  0
    1.8603    0.4471    2.1393 C   0  0  0  0  0  0  0  0  0  0  0  0
    4.6249    1.2445   -0.1512 C   0  0  0  0  0  0  0  0  0  0  0  0
    3.3048    0.9620   -0.7981 C   0  0  0  0  0  0  0  0  0  0  0  0
    2.9618    1.4671   -1.8415 O   0  0  0  0  0  0  0  0  0  0  0  0
    0.5514   -0.9545    0.1435 H   0  0  0  0  0  0  0  0  0  0  0  0
    0.8844   -0.2847   -1.4654 H   0  0  0  0  0  0  0  0  0  0  0  0
    0.6373    0.8043   -0.1750 H   0  0  0  0  0  0  0  0  0  0  0  0
    3.3055   -1.3611   -1.7581 H   0  0  0  0  0  0  0  0  0  0  0  0
    2.7896   -2.3580   -0.3804 H   0  0  0  0  0  0  0  0  0  0  0  0
    5.4349   -1.2166   -0.8577 H   0  0  0  0  0  0  0  0  0  0  0  0
    4.9050   -2.1543    0.5485 H   0  0  0  0  0  0  0  0  0  0  0  0
    5.4904    0.0953    1.4094 H   0  0  0  0  0  0  0  0  0  0  0  0
    4.8122   -0.6768    2.9625 H   0  0  0  0  0  0  0  0  0  0  0  0
    3.2012   -1.2870    3.3444 H   0  0  0  0  0  0  0  0  0  0  0  0
    3.6691    0.4097    3.4986 H   0  0  0  0  0  0  0  0  0  0  0  0
    0.9808    0.7448    1.5913 H   0  0  0  0  0  0  0  0  0  0  0  0
    1.9731    1.2376    2.8739 H   0  0  0  0  0  0  0  0  0  0  0  0
    1.4414   -0.4650    2.6271 H   0  0  0  0  0  0  0  0  0  0  0  0
    5.4533    1.1566   -0.8627 H   0  0  0  0  0  0  0  0  0  0  0  0
    4.6650    2.1865    0.3931 H   0  0  0  0  0  0  0  0  0  0  0  0
  1 12  1  0  0  0  0
  1 13  1  0  0  0  0
  1 14  1  0  0  0  0
  2  3  1  0  0  0  0
  2  6  1  0  0  0  0
  2 10  1  0  0  0  0
  2  1  1  6  0  0  0
  3  4  1  0  0  0  0
  3 15  1  0  0  0  0
  3 16  1  0  0  0  0
  4  5  1  0  0  0  0
  4 17  1  0  0  0  0
  4 18  1  0  0  0  0
  5  6  1  0  0  0  0
  5  9  1  0  0  0  0
  5 19  1  1  0  0  0
  6  7  1  0  0  0  0
  6  8  1  0  0  0  0
  7 20  1  0  0  0  0
  7 21  1  0  0  0  0
  7 22  1  0  0  0  0
  8 23  1  0  0  0  0
  8 24  1  0  0  0  0
  8 25  1  0  0  0  0
  9 10  1  0  0  0  0
  9 26  1  0  0  0  0
  9 27  1  0  0  0  0
 10 11  2  0  0  0  0
M  END
$$$$
