
 OpenBabel07202215583D

 26 26  0  0  0  0  0  0  0  0999 V2000
    0.8992    0.0018   -0.0485 C   0  0  0  0  0  0  0  0  0  0  0  0
    2.4010   -0.0792   -0.0488 C   0  0  0  0  0  0  0  0  0  0  0  0
    3.1023    1.1480   -0.0477 C   0  0  0  0  0  0  0  0  0  0  0  0
    4.4915    1.1766   -0.0462 C   0  0  0  0  0  0  0  0  0  0  0  0
    5.2305   -0.0071   -0.0424 C   0  0  0  0  0  0  0  0  0  0  0  0
    4.5334   -1.2393   -0.0441 C   0  0  0  0  0  0  0  0  0  0  0  0
    3.1158   -1.3075   -0.0494 C   0  0  0  0  0  0  0  0  0  0  0  0
    2.4477   -2.6798   -0.0565 C   0  0  0  0  0  0  0  0  0  0  0  0
    3.0287   -3.7564   -0.0587 O   0  0  0  0  0  0  0  0  0  0  0  0
    1.0916   -2.5920   -0.0621 O   0  0  0  0  0  0  0  0  0  0  0  0
    0.3865   -3.8387   -0.0704 C   0  0  0  0  0  0  0  0  0  0  0  0
    5.2486   -2.4106   -0.0397 O   0  0  0  0  0  0  0  0  0  0  0  0
    6.7339    0.0560   -0.0358 C   0  0  0  0  0  0  0  0  0  0  0  0
    5.1569    2.3715   -0.0481 O   0  0  0  0  0  0  0  0  0  0  0  0
    0.5409    1.0355   -0.0458 H   0  0  0  0  0  0  0  0  0  0  0  0
    0.4998   -0.4720    0.8538 H   0  0  0  0  0  0  0  0  0  0  0  0
    0.4992   -0.4674   -0.9528 H   0  0  0  0  0  0  0  0  0  0  0  0
    2.5477    2.0843   -0.0476 H   0  0  0  0  0  0  0  0  0  0  0  0
   -0.6869   -3.6223   -0.0743 H   0  0  0  0  0  0  0  0  0  0  0  0
    0.6146   -4.4167    0.8302 H   0  0  0  0  0  0  0  0  0  0  0  0
    0.6225   -4.4094   -0.9737 H   0  0  0  0  0  0  0  0  0  0  0  0
    6.2028   -2.2527   -0.0356 H   0  0  0  0  0  0  0  0  0  0  0  0
    7.1178    1.0808   -0.0350 H   0  0  0  0  0  0  0  0  0  0  0  0
    7.1320   -0.4328   -0.9302 H   0  0  0  0  0  0  0  0  0  0  0  0
    7.1237   -0.4307    0.8634 H   0  0  0  0  0  0  0  0  0  0  0  0
    4.5258    3.1089   -0.0548 H   0  0  0  0  0  0  0  0  0  0  0  0
  1  2  1  0  0  0  0
  1 15  1  0  0  0  0
  1 16  1  0  0  0  0
  1 17  1  0  0  0  0
  2  3  2  0  0  0  0
  2  7  1  0  0  0  0
  3  4  1  0  0  0  0
  3 18  1  0  0  0  0
  4  5  2  0  0  0  0
  4 14  1  0  0  0  0
  5  6  1  0  0  0  0
  5 13  1  0  0  0  0
  6  7  2  0  0  0  0
  6 12  1  0  0  0  0
  7  8  1  0  0  0  0
  8  9  2  0  0  0  0
  8 10  1  0  0  0  0
 10 11  1  0  0  0  0
 11 19  1  0  0  0  0
 11 20  1  0  0  0  0
 11 21  1  0  0  0  0
 12 22  1  0  0  0  0
 13 23  1  0  0  0  0
 13 24  1  0  0  0  0
 13 25  1  0  0  0  0
 14 26  1  0  0  0  0
M  END
$$$$
