
 OpenBabel07222214433D

 29 30  0  0  0  0  0  0  0  0999 V2000
    1.0666   -0.0144    0.0195 C   0  0  0  0  0  0  0  0  0  0  0  0
    2.5938   -0.0588    0.0674 C   0  0  0  0  0  0  0  0  0  0  0  0
    3.0947   -1.4824   -0.2366 C   0  0  0  0  0  0  0  0  0  0  0  0
    4.6249   -1.5149   -0.1720 C   0  0  0  0  0  0  0  0  0  0  0  0
    5.1486   -0.0931    0.1029 C   0  0  0  0  0  0  0  0  0  0  0  0
    4.6263    0.3201    1.4914 C   0  0  0  0  0  0  0  0  0  0  0  0
    3.0962    0.3822    1.4541 C   0  0  0  0  0  0  0  0  0  0  0  0
    4.5750    0.8767   -0.9666 C   0  0  0  0  0  0  0  0  0  0  0  0
    5.0334    2.3251   -0.7244 C   0  0  0  0  0  0  0  0  0  0  0  0
    5.0308    0.4928   -2.3848 C   0  0  0  0  0  0  0  0  0  0  0  0
    3.1267    0.8443   -0.9287 O   0  0  0  0  0  0  0  0  0  0  0  0
    0.6285   -0.6894    0.7639 H   0  0  0  0  0  0  0  0  0  0  0  0
    0.6929   -0.3057   -0.9680 H   0  0  0  0  0  0  0  0  0  0  0  0
    0.6936    0.9969    0.2133 H   0  0  0  0  0  0  0  0  0  0  0  0
    2.7701   -1.7929   -1.2375 H   0  0  0  0  0  0  0  0  0  0  0  0
    2.6790   -2.2033    0.4774 H   0  0  0  0  0  0  0  0  0  0  0  0
    5.0307   -1.9174   -1.1059 H   0  0  0  0  0  0  0  0  0  0  0  0
    4.9519   -2.2034    0.6157 H   0  0  0  0  0  0  0  0  0  0  0  0
    6.2462   -0.0885    0.0968 H   0  0  0  0  0  0  0  0  0  0  0  0
    5.0330    1.2887    1.8001 H   0  0  0  0  0  0  0  0  0  0  0  0
    4.9536   -0.3966    2.2534 H   0  0  0  0  0  0  0  0  0  0  0  0
    2.7724    1.4088    1.6659 H   0  0  0  0  0  0  0  0  0  0  0  0
    2.6807   -0.2578    2.2416 H   0  0  0  0  0  0  0  0  0  0  0  0
    6.1278    2.3898   -0.6967 H   0  0  0  0  0  0  0  0  0  0  0  0
    4.6363    2.7375    0.2073 H   0  0  0  0  0  0  0  0  0  0  0  0
    4.6729    2.9903   -1.5170 H   0  0  0  0  0  0  0  0  0  0  0  0
    6.1250    0.4571   -2.4480 H   0  0  0  0  0  0  0  0  0  0  0  0
    4.6704    1.2169   -3.1240 H   0  0  0  0  0  0  0  0  0  0  0  0
    4.6316   -0.4741   -2.7033 H   0  0  0  0  0  0  0  0  0  0  0  0
  1  2  1  0  0  0  0
  1 12  1  0  0  0  0
  1 13  1  0  0  0  0
  1 14  1  0  0  0  0
  2  3  1  0  0  0  0
  2  7  1  0  0  0  0
  2 11  1  0  0  0  0
  3  4  1  0  0  0  0
  3 15  1  0  0  0  0
  3 16  1  0  0  0  0
  4  5  1  0  0  0  0
  4 17  1  0  0  0  0
  4 18  1  0  0  0  0
  5  6  1  0  0  0  0
  5  8  1  0  0  0  0
  5 19  1  0  0  0  0
  6  7  1  0  0  0  0
  6 20  1  0  0  0  0
  6 21  1  0  0  0  0
  7 22  1  0  0  0  0
  7 23  1  0  0  0  0
  8  9  1  0  0  0  0
  8 10  1  0  0  0  0
  8 11  1  0  0  0  0
  9 24  1  0  0  0  0
  9 25  1  0  0  0  0
  9 26  1  0  0  0  0
 10 27  1  0  0  0  0
 10 28  1  0  0  0  0
 10 29  1  0  0  0  0
M  END
$$$$
