
 OpenBabel07222214433D

 29 29  0  0  1  0  0  0  0  0999 V2000
    2.5438    0.0174   -0.0129 C   0  0  0  0  0  0  0  0  0  0  0  0
    1.0593    0.0254   -0.2061 C   0  0  0  0  0  0  0  0  0  0  0  0
    0.3578    1.1798   -0.2714 C   0  0  0  0  0  0  0  0  0  0  0  0
   -1.1412    1.2254   -0.2384 C   0  0  0  0  0  0  0  0  0  0  0  0
   -1.7424   -0.0503    0.3816 C   0  0  1  0  0  0  0  0  0  0  0  0
   -1.1252   -1.2723   -0.3383 C   0  0  0  0  0  0  0  0  0  0  0  0
    0.3964   -1.3367   -0.2120 C   0  0  0  0  0  0  0  0  0  0  0  0
   -1.6460   -0.1010    1.9488 C   0  0  0  0  0  0  0  0  0  0  0  0
   -0.2438   -0.0279    2.5725 C   0  0  0  0  0  0  0  0  0  0  0  0
   -2.4527    1.0403    2.5852 C   0  0  0  0  0  0  0  0  0  0  0  0
   -2.2489   -1.3350    2.3634 O   0  0  0  0  0  0  0  0  0  0  0  0
    2.9682    1.0261   -0.0196 H   0  0  0  0  0  0  0  0  0  0  0  0
    3.0210   -0.5651   -0.8044 H   0  0  0  0  0  0  0  0  0  0  0  0
    2.7904   -0.4367    0.9545 H   0  0  0  0  0  0  0  0  0  0  0  0
    0.8665    2.1385   -0.2342 H   0  0  0  0  0  0  0  0  0  0  0  0
   -1.5139    1.3704   -1.2603 H   0  0  0  0  0  0  0  0  0  0  0  0
   -1.4654    2.1108    0.3171 H   0  0  0  0  0  0  0  0  0  0  0  0
   -2.8143   -0.0686    0.1284 H   0  0  0  0  0  0  0  0  0  0  0  0
   -1.3711   -1.2136   -1.4084 H   0  0  0  0  0  0  0  0  0  0  0  0
   -1.5730   -2.2068    0.0187 H   0  0  0  0  0  0  0  0  0  0  0  0
    0.8106   -1.9446   -1.0234 H   0  0  0  0  0  0  0  0  0  0  0  0
    0.6494   -1.8909    0.6981 H   0  0  0  0  0  0  0  0  0  0  0  0
   -0.2934   -0.0464    3.6653 H   0  0  0  0  0  0  0  0  0  0  0  0
    0.2788    0.8920    2.2981 H   0  0  0  0  0  0  0  0  0  0  0  0
    0.3738   -0.8911    2.3350 H   0  0  0  0  0  0  0  0  0  0  0  0
   -2.4265    0.9601    3.6781 H   0  0  0  0  0  0  0  0  0  0  0  0
   -3.5047    1.0027    2.2897 H   0  0  0  0  0  0  0  0  0  0  0  0
   -2.0433    2.0218    2.3286 H   0  0  0  0  0  0  0  0  0  0  0  0
   -2.1346   -1.4183    3.3250 H   0  0  0  0  0  0  0  0  0  0  0  0
  1  2  1  0  0  0  0
  1 12  1  0  0  0  0
  1 13  1  0  0  0  0
  1 14  1  0  0  0  0
  2  3  2  0  0  0  0
  2  7  1  0  0  0  0
  3  4  1  0  0  0  0
  3 15  1  0  0  0  0
  4  5  1  0  0  0  0
  4 16  1  0  0  0  0
  4 17  1  0  0  0  0
  5  6  1  0  0  0  0
  5  8  1  0  0  0  0
  5 18  1  6  0  0  0
  6  7  1  0  0  0  0
  6 19  1  0  0  0  0
  6 20  1  0  0  0  0
  7 21  1  0  0  0  0
  7 22  1  0  0  0  0
  8  9  1  0  0  0  0
  8 10  1  0  0  0  0
  8 11  1  0  0  0  0
  9 23  1  0  0  0  0
  9 24  1  0  0  0  0
  9 25  1  0  0  0  0
 10 26  1  0  0  0  0
 10 27  1  0  0  0  0
 10 28  1  0  0  0  0
 11 29  1  0  0  0  0
M  END
$$$$
