
 OpenBabel07222214433D

 32 32  0  0  0  0  0  0  0  0999 V2000
    1.0083    0.1235   -0.0757 C   0  0  0  0  0  0  0  0  0  0  0  0
    2.5371    0.0851   -0.0783 C   0  0  0  0  0  0  0  0  0  0  0  0
    3.0306    0.9564    1.0950 C   0  0  0  0  0  0  0  0  0  0  0  0
    3.0506   -1.3386    0.0184 C   0  0  0  0  0  0  0  0  0  0  0  0
    2.3378   -2.4487   -0.4691 C   0  0  0  0  0  0  0  0  0  0  0  0
    2.7583   -3.7531   -0.2009 C   0  0  0  0  0  0  0  0  0  0  0  0
    3.9885   -3.9687    0.4147 C   0  0  0  0  0  0  0  0  0  0  0  0
    4.7524   -2.8525    0.7686 C   0  0  0  0  0  0  0  0  0  0  0  0
    4.2803   -1.5699    0.6191 C   0  0  0  0  0  0  0  0  0  0  0  0
    4.4950   -5.3729    0.6347 C   0  0  0  0  0  0  0  0  0  0  0  0
    5.8368   -5.4213    1.3819 C   0  0  0  0  0  0  0  0  0  0  0  0
    5.7135   -4.9193    2.8276 C   0  0  0  0  0  0  0  0  0  0  0  0
    6.3890   -6.8196    1.4203 C   0  0  0  0  0  0  0  0  0  0  0  0
    7.4856   -7.0833    1.9234 O   0  0  0  0  0  0  0  0  0  0  0  0
    0.6433    1.1515   -0.1270 H   0  0  0  0  0  0  0  0  0  0  0  0
    0.6148   -0.3413    0.8369 H   0  0  0  0  0  0  0  0  0  0  0  0
    0.5860   -0.4096   -0.9324 H   0  0  0  0  0  0  0  0  0  0  0  0
    2.9143    0.5119   -1.0164 H   0  0  0  0  0  0  0  0  0  0  0  0
    2.7297    0.5188    2.0559 H   0  0  0  0  0  0  0  0  0  0  0  0
    2.6298    1.9705    1.0348 H   0  0  0  0  0  0  0  0  0  0  0  0
    4.1208    1.0627    1.1091 H   0  0  0  0  0  0  0  0  0  0  0  0
    1.4297   -2.3250   -1.0515 H   0  0  0  0  0  0  0  0  0  0  0  0
    2.1211   -4.5869   -0.4873 H   0  0  0  0  0  0  0  0  0  0  0  0
    5.7377   -2.9200    1.2150 H   0  0  0  0  0  0  0  0  0  0  0  0
    4.9133   -0.7772    1.0013 H   0  0  0  0  0  0  0  0  0  0  0  0
    4.6061   -5.8361   -0.3555 H   0  0  0  0  0  0  0  0  0  0  0  0
    3.7428   -5.9615    1.1770 H   0  0  0  0  0  0  0  0  0  0  0  0
    6.5742   -4.8350    0.8146 H   0  0  0  0  0  0  0  0  0  0  0  0
    5.0527   -5.5701    3.4047 H   0  0  0  0  0  0  0  0  0  0  0  0
    5.2980   -3.9136    2.9298 H   0  0  0  0  0  0  0  0  0  0  0  0
    6.6972   -4.8873    3.3038 H   0  0  0  0  0  0  0  0  0  0  0  0
    5.7668   -7.6167    0.9901 H   0  0  0  0  0  0  0  0  0  0  0  0
  1  2  1  0  0  0  0
  1 15  1  0  0  0  0
  1 16  1  0  0  0  0
  1 17  1  0  0  0  0
  2  3  1  0  0  0  0
  2  4  1  0  0  0  0
  2 18  1  0  0  0  0
  3 19  1  0  0  0  0
  3 20  1  0  0  0  0
  3 21  1  0  0  0  0
  4  5  2  0  0  0  0
  4  9  1  0  0  0  0
  5  6  1  0  0  0  0
  5 22  1  0  0  0  0
  6  7  2  0  0  0  0
  6 23  1  0  0  0  0
  7  8  1  0  0  0  0
  7 10  1  0  0  0  0
  8  9  2  0  0  0  0
  8 24  1  0  0  0  0
  9 25  1  0  0  0  0
 10 11  1  0  0  0  0
 10 26  1  0  0  0  0
 10 27  1  0  0  0  0
 11 12  1  0  0  0  0
 11 13  1  0  0  0  0
 11 28  1  0  0  0  0
 12 29  1  0  0  0  0
 12 30  1  0  0  0  0
 12 31  1  0  0  0  0
 13 14  2  0  0  0  0
 13 32  1  0  0  0  0
M  END
$$$$
