
 OpenBabel07202215583D

 37 36  0  0  0  0  0  0  0  0999 V2000
    0.9329   -0.0011   -0.0766 C   0  0  0  0  0  0  0  0  0  0  0  0
    2.4490    0.0045   -0.0814 C   0  0  0  0  0  0  0  0  0  0  0  0
    2.9725    1.0909   -1.0101 C   0  0  0  0  0  0  0  0  0  0  0  0
    4.4926    1.0988   -1.0169 C   0  0  0  0  0  0  0  0  0  0  0  0
    5.0063    2.1861   -1.9464 C   0  0  0  0  0  0  0  0  0  0  0  0
    6.5253    2.1926   -1.9519 C   0  0  0  0  0  0  0  0  0  0  0  0
    7.0394    3.2791   -2.8807 C   0  0  0  0  0  0  0  0  0  0  0  0
    8.5593    3.2852   -2.8859 C   0  0  0  0  0  0  0  0  0  0  0  0
    9.0762    4.3719   -3.8149 C   0  0  0  0  0  0  0  0  0  0  0  0
   10.5982    4.3845   -3.8257 C   0  0  0  0  0  0  0  0  0  0  0  0
   11.1113    5.4729   -4.7561 C   0  0  0  0  0  0  0  0  0  0  0  0
   12.6138    5.4976   -4.7772 C   0  0  0  0  0  0  0  0  0  0  0  0
   13.2531    6.2954   -5.4592 O   0  0  0  0  0  0  0  0  0  0  0  0
    0.5590   -0.7818    0.5908 H   0  0  0  0  0  0  0  0  0  0  0  0
    0.5439   -0.1899   -1.0823 H   0  0  0  0  0  0  0  0  0  0  0  0
    0.5439    0.9630    0.2663 H   0  0  0  0  0  0  0  0  0  0  0  0
    2.8200   -0.9746   -0.4060 H   0  0  0  0  0  0  0  0  0  0  0  0
    2.8200    0.1729    0.9363 H   0  0  0  0  0  0  0  0  0  0  0  0
    2.5997    2.0706   -0.6864 H   0  0  0  0  0  0  0  0  0  0  0  0
    2.5997    0.9236   -2.0282 H   0  0  0  0  0  0  0  0  0  0  0  0
    4.8702    0.1223   -1.3439 H   0  0  0  0  0  0  0  0  0  0  0  0
    4.8702    1.2699   -0.0013 H   0  0  0  0  0  0  0  0  0  0  0  0
    4.6311    3.1642   -1.6209 H   0  0  0  0  0  0  0  0  0  0  0  0
    4.6311    2.0168   -2.9632 H   0  0  0  0  0  0  0  0  0  0  0  0
    6.9009    1.2148   -2.2778 H   0  0  0  0  0  0  0  0  0  0  0  0
    6.9009    2.3624   -0.9353 H   0  0  0  0  0  0  0  0  0  0  0  0
    6.6627    4.2564   -2.5545 H   0  0  0  0  0  0  0  0  0  0  0  0
    6.6627    3.1089   -3.8968 H   0  0  0  0  0  0  0  0  0  0  0  0
    8.9329    2.3065   -3.2110 H   0  0  0  0  0  0  0  0  0  0  0  0
    8.9329    3.4541   -1.8685 H   0  0  0  0  0  0  0  0  0  0  0  0
    8.6971    5.3481   -3.4880 H   0  0  0  0  0  0  0  0  0  0  0  0
    8.6971    4.2008   -4.8300 H   0  0  0  0  0  0  0  0  0  0  0  0
   10.9763    3.4057   -4.1468 H   0  0  0  0  0  0  0  0  0  0  0  0
   10.9764    4.5494   -2.8088 H   0  0  0  0  0  0  0  0  0  0  0  0
   10.7561    6.4526   -4.4199 H   0  0  0  0  0  0  0  0  0  0  0  0
   10.7561    5.2932   -5.7761 H   0  0  0  0  0  0  0  0  0  0  0  0
   13.1324    4.7578   -4.1448 H   0  0  0  0  0  0  0  0  0  0  0  0
  1  2  1  0  0  0  0
  1 14  1  0  0  0  0
  1 15  1  0  0  0  0
  1 16  1  0  0  0  0
  2  3  1  0  0  0  0
  2 17  1  0  0  0  0
  2 18  1  0  0  0  0
  3  4  1  0  0  0  0
  3 19  1  0  0  0  0
  3 20  1  0  0  0  0
  4  5  1  0  0  0  0
  4 21  1  0  0  0  0
  4 22  1  0  0  0  0
  5  6  1  0  0  0  0
  5 23  1  0  0  0  0
  5 24  1  0  0  0  0
  6  7  1  0  0  0  0
  6 25  1  0  0  0  0
  6 26  1  0  0  0  0
  7  8  1  0  0  0  0
  7 27  1  0  0  0  0
  7 28  1  0  0  0  0
  8  9  1  0  0  0  0
  8 29  1  0  0  0  0
  8 30  1  0  0  0  0
  9 10  1  0  0  0  0
  9 31  1  0  0  0  0
  9 32  1  0  0  0  0
 10 11  1  0  0  0  0
 10 33  1  0  0  0  0
 10 34  1  0  0  0  0
 11 12  1  0  0  0  0
 11 35  1  0  0  0  0
 11 36  1  0  0  0  0
 12 13  2  0  0  0  0
 12 37  1  0  0  0  0
M  END
$$$$
