
 OpenBabel07222214433D

 27 28  0  0  1  0  0  0  0  0999 V2000
    1.0913   -0.1364   -0.3585 C   0  0  0  0  0  0  0  0  0  0  0  0
    2.5951   -0.1867   -0.0148 C   0  0  2  0  0  0  0  0  0  0  0  0
    3.2855   -1.3848   -0.6221 C   0  0  0  0  0  0  0  0  0  0  0  0
    4.6784   -1.2332   -0.0264 C   0  0  0  0  0  0  0  0  0  0  0  0
    4.5895    0.1128    0.8228 C   0  0  2  0  0  0  0  0  0  0  0  0
    3.1535    0.0076    1.4841 C   0  0  0  0  0  0  0  0  0  0  0  0
    3.7329   -0.4651    2.8693 C   0  0  0  0  0  0  0  0  0  0  0  0
    1.8669    0.5125    2.1723 C   0  0  0  0  0  0  0  0  0  0  0  0
    4.6233    1.2872   -0.1167 C   0  0  0  0  0  0  0  0  0  0  0  0
    3.3025    1.0026   -0.7630 C   0  0  0  0  0  0  0  0  0  0  0  0
    2.9592    1.5057   -1.8073 O   0  0  0  0  0  0  0  0  0  0  0  0
    0.5507   -0.9145    0.1899 H   0  0  0  0  0  0  0  0  0  0  0  0
    0.8819   -0.2558   -1.4250 H   0  0  0  0  0  0  0  0  0  0  0  0
    0.6311    0.8405   -0.1431 H   0  0  0  0  0  0  0  0  0  0  0  0
    3.3063   -1.3204   -1.7197 H   0  0  0  0  0  0  0  0  0  0  0  0
    2.7908   -2.3174   -0.3423 H   0  0  0  0  0  0  0  0  0  0  0  0
    5.4349   -1.1739   -0.8191 H   0  0  0  0  0  0  0  0  0  0  0  0
    4.9056   -2.1103    0.5881 H   0  0  0  0  0  0  0  0  0  0  0  0
    5.4882    0.1433    1.4499 H   0  0  0  0  0  0  0  0  0  0  0  0
    4.8016   -0.6669    2.9912 H   0  0  0  0  0  0  0  0  0  0  0  0
    3.1806   -1.2587    3.3689 H   0  0  0  0  0  0  0  0  0  0  0  0
    3.6723    0.4292    3.5387 H   0  0  0  0  0  0  0  0  0  0  0  0
    1.0028    0.8408    1.6174 H   0  0  0  0  0  0  0  0  0  0  0  0
    1.9895    1.2880    2.9214 H   0  0  0  0  0  0  0  0  0  0  0  0
    1.4269   -0.3970    2.6470 H   0  0  0  0  0  0  0  0  0  0  0  0
    5.4519    1.1979   -0.8278 H   0  0  0  0  0  0  0  0  0  0  0  0
    4.6635    2.2304    0.4256 H   0  0  0  0  0  0  0  0  0  0  0  0
  1 12  1  0  0  0  0
  1 13  1  0  0  0  0
  1 14  1  0  0  0  0
  2  3  1  0  0  0  0
  2  6  1  0  0  0  0
  2 10  1  0  0  0  0
  2  1  1  6  0  0  0
  3  4  1  0  0  0  0
  3 15  1  0  0  0  0
  3 16  1  0  0  0  0
  4  5  1  0  0  0  0
  4 17  1  0  0  0  0
  4 18  1  0  0  0  0
  5  6  1  0  0  0  0
  5  9  1  0  0  0  0
  5 19  1  1  0  0  0
  6  7  1  0  0  0  0
  6  8  1  0  0  0  0
  7 20  1  0  0  0  0
  7 21  1  0  0  0  0
  7 22  1  0  0  0  0
  8 23  1  0  0  0  0
  8 24  1  0  0  0  0
  8 25  1  0  0  0  0
  9 10  1  0  0  0  0
  9 26  1  0  0  0  0
  9 27  1  0  0  0  0
 10 11  2  0  0  0  0
M  END
$$$$
