
 OpenBabel07202215583D

 28 27  0  0  0  0  0  0  0  0999 V2000
    0.9195   -0.1409    0.1694 C   0  0  0  0  0  0  0  0  0  0  0  0
    2.4442   -0.2331    0.2423 C   0  0  0  0  0  0  0  0  0  0  0  0
    2.9865   -0.0498   -1.1602 C   0  0  0  0  0  0  0  0  0  0  0  0
    4.4927    0.0875   -1.3079 C   0  0  0  0  0  0  0  0  0  0  0  0
    4.9402    0.3261   -2.7733 C   0  0  0  0  0  0  0  0  0  0  0  0
    4.4772    1.6650   -3.4487 C   0  0  0  0  0  0  0  0  0  0  0  0
    5.0673    1.8206   -4.8646 C   0  0  0  0  0  0  0  0  0  0  0  0
    2.9493    1.8280   -3.6166 C   0  0  0  0  0  0  0  0  0  0  0  0
    2.6216    3.0463   -4.2818 O   0  0  0  0  0  0  0  0  0  0  0  0
    6.7891    0.1826   -2.7471 S   0  0  0  0  0  0  0  0  0  0  0  0
    0.4756   -0.2304    1.1619 H   0  0  0  0  0  0  0  0  0  0  0  0
    0.5116   -0.9260   -0.4764 H   0  0  0  0  0  0  0  0  0  0  0  0
    0.6032    0.8227   -0.2534 H   0  0  0  0  0  0  0  0  0  0  0  0
    2.7654   -1.1833    0.6722 H   0  0  0  0  0  0  0  0  0  0  0  0
    2.8147    0.5809    0.8772 H   0  0  0  0  0  0  0  0  0  0  0  0
    2.5529    0.8985   -1.4039 H   0  0  0  0  0  0  0  0  0  0  0  0
    2.5923   -0.8015   -1.8538 H   0  0  0  0  0  0  0  0  0  0  0  0
    4.9480   -0.8358   -0.9235 H   0  0  0  0  0  0  0  0  0  0  0  0
    4.8470    0.9097   -0.6737 H   0  0  0  0  0  0  0  0  0  0  0  0
    4.5982   -0.5153   -3.3879 H   0  0  0  0  0  0  0  0  0  0  0  0
    4.8395    2.5056   -2.8423 H   0  0  0  0  0  0  0  0  0  0  0  0
    4.7264    1.0028   -5.5095 H   0  0  0  0  0  0  0  0  0  0  0  0
    6.1580    1.8409   -4.8714 H   0  0  0  0  0  0  0  0  0  0  0  0
    4.7447    2.7616   -5.3225 H   0  0  0  0  0  0  0  0  0  0  0  0
    2.4142    1.9556   -2.6898 H   0  0  0  0  0  0  0  0  0  0  0  0
    2.5151    0.9826   -4.1583 H   0  0  0  0  0  0  0  0  0  0  0  0
    2.7504    3.7496   -3.6299 H   0  0  0  0  0  0  0  0  0  0  0  0
    7.0402    1.2975   -2.0436 H   0  0  0  0  0  0  0  0  0  0  0  0
  1  2  1  0  0  0  0
  1 11  1  0  0  0  0
  1 12  1  0  0  0  0
  1 13  1  0  0  0  0
  2  3  1  0  0  0  0
  2 14  1  0  0  0  0
  2 15  1  0  0  0  0
  3  4  1  0  0  0  0
  3 16  1  0  0  0  0
  3 17  1  0  0  0  0
  4  5  1  0  0  0  0
  4 18  1  0  0  0  0
  4 19  1  0  0  0  0
  5  6  1  0  0  0  0
  5 10  1  0  0  0  0
  5 20  1  0  0  0  0
  6  7  1  0  0  0  0
  6  8  1  0  0  0  0
  6 21  1  0  0  0  0
  7 22  1  0  0  0  0
  7 23  1  0  0  0  0
  7 24  1  0  0  0  0
  8  9  1  0  0  0  0
  8 25  1  0  0  0  0
  8 26  1  0  0  0  0
  9 27  1  0  0  0  0
 10 28  1  0  0  0  0
M  END
$$$$
