
 OpenBabel07202215583D

 30 30  0  0  0  0  0  0  0  0999 V2000
    0.9602   -0.0835    0.0418 C   0  0  0  0  0  0  0  0  0  0  0  0
    2.4764   -0.0829    0.0509 C   0  0  0  0  0  0  0  0  0  0  0  0
    2.9969    0.2788    1.4353 C   0  0  0  0  0  0  0  0  0  0  0  0
    4.5171    0.2711    1.4562 C   0  0  0  0  0  0  0  0  0  0  0  0
    5.0267    0.6186    2.8505 C   0  0  0  0  0  0  0  0  0  0  0  0
    6.5050    0.6844    2.8361 C   0  0  0  0  0  0  0  0  0  0  0  0
    7.3087    1.7194    2.5641 C   0  0  0  0  0  0  0  0  0  0  0  0
    6.8535    3.0979    2.2182 C   0  0  0  0  0  0  0  0  0  0  0  0
    8.7680    1.3786    2.5974 C   0  0  0  0  0  0  0  0  0  0  0  0
    8.8279   -0.0717    3.0717 C   0  0  0  0  0  0  0  0  0  0  0  0
    7.3812   -0.4635    3.1282 C   0  0  0  0  0  0  0  0  0  0  0  0
    6.9678   -1.5781    3.4008 O   0  0  0  0  0  0  0  0  0  0  0  0
    0.5866   -0.3470   -0.9510 H   0  0  0  0  0  0  0  0  0  0  0  0
    0.5715    0.9051    0.3067 H   0  0  0  0  0  0  0  0  0  0  0  0
    0.5702   -0.8096    0.7622 H   0  0  0  0  0  0  0  0  0  0  0  0
    2.8488    0.6350   -0.6895 H   0  0  0  0  0  0  0  0  0  0  0  0
    2.8466   -1.0728   -0.2401 H   0  0  0  0  0  0  0  0  0  0  0  0
    2.6169   -0.4345    2.1763 H   0  0  0  0  0  0  0  0  0  0  0  0
    2.6296    1.2722    1.7221 H   0  0  0  0  0  0  0  0  0  0  0  0
    4.8940    0.9945    0.7201 H   0  0  0  0  0  0  0  0  0  0  0  0
    4.8917   -0.7149    1.1534 H   0  0  0  0  0  0  0  0  0  0  0  0
    4.6760   -0.1110    3.5882 H   0  0  0  0  0  0  0  0  0  0  0  0
    4.6114    1.5835    3.1650 H   0  0  0  0  0  0  0  0  0  0  0  0
    5.7625    3.1898    2.2312 H   0  0  0  0  0  0  0  0  0  0  0  0
    7.1861    3.3760    1.2146 H   0  0  0  0  0  0  0  0  0  0  0  0
    7.2452    3.8180    2.9416 H   0  0  0  0  0  0  0  0  0  0  0  0
    9.3146    2.0338    3.2821 H   0  0  0  0  0  0  0  0  0  0  0  0
    9.2097    1.4769    1.5993 H   0  0  0  0  0  0  0  0  0  0  0  0
    9.2647   -0.1462    4.0717 H   0  0  0  0  0  0  0  0  0  0  0  0
    9.3712   -0.7096    2.3694 H   0  0  0  0  0  0  0  0  0  0  0  0
  1  2  1  0  0  0  0
  1 13  1  0  0  0  0
  1 14  1  0  0  0  0
  1 15  1  0  0  0  0
  2  3  1  0  0  0  0
  2 16  1  0  0  0  0
  2 17  1  0  0  0  0
  3  4  1  0  0  0  0
  3 18  1  0  0  0  0
  3 19  1  0  0  0  0
  4  5  1  0  0  0  0
  4 20  1  0  0  0  0
  4 21  1  0  0  0  0
  5  6  1  0  0  0  0
  5 22  1  0  0  0  0
  5 23  1  0  0  0  0
  6  7  2  0  0  0  0
  6 11  1  0  0  0  0
  7  8  1  0  0  0  0
  7  9  1  0  0  0  0
  8 24  1  0  0  0  0
  8 25  1  0  0  0  0
  8 26  1  0  0  0  0
  9 10  1  0  0  0  0
  9 27  1  0  0  0  0
  9 28  1  0  0  0  0
 10 11  1  0  0  0  0
 10 29  1  0  0  0  0
 10 30  1  0  0  0  0
 11 12  2  0  0  0  0
M  END
$$$$
