
 OpenBabel07202215583D

 14 14  0  0  0  0  0  0  0  0999 V2000
    0.9671    0.0213    0.0476 S   0  0  0  0  0  0  0  0  0  0  0  0
    2.7773   -0.0127    0.0081 C   0  0  0  0  0  0  0  0  0  0  0  0
    3.3895    1.0312    0.9364 C   0  0  0  0  0  0  0  0  0  0  0  0
    4.8085    0.5753    1.2539 C   0  0  0  0  0  0  0  0  0  0  0  0
    4.7700   -0.9107    1.5696 C   0  0  0  0  0  0  0  0  0  0  0  0
    3.4106   -1.6034    0.5982 S   0  0  0  0  0  0  0  0  0  0  0  0
    0.8125    1.1860   -0.5955 H   0  0  0  0  0  0  0  0  0  0  0  0
    3.1176    0.1324   -1.0212 H   0  0  0  0  0  0  0  0  0  0  0  0
    2.8234    1.1419    1.8682 H   0  0  0  0  0  0  0  0  0  0  0  0
    3.4096    2.0164    0.4524 H   0  0  0  0  0  0  0  0  0  0  0  0
    5.2165    1.1360    2.1043 H   0  0  0  0  0  0  0  0  0  0  0  0
    5.4690    0.7650    0.4015 H   0  0  0  0  0  0  0  0  0  0  0  0
    4.5818   -1.0908    2.6309 H   0  0  0  0  0  0  0  0  0  0  0  0
    5.7122   -1.3970    1.2970 H   0  0  0  0  0  0  0  0  0  0  0  0
  1  2  1  0  0  0  0
  1  7  1  0  0  0  0
  2  3  1  0  0  0  0
  2  6  1  0  0  0  0
  2  8  1  0  0  0  0
  3  4  1  0  0  0  0
  3  9  1  0  0  0  0
  3 10  1  0  0  0  0
  4  5  1  0  0  0  0
  4 11  1  0  0  0  0
  4 12  1  0  0  0  0
  5  6  1  0  0  0  0
  5 13  1  0  0  0  0
  5 14  1  0  0  0  0
M  END
$$$$
