
 OpenBabel07222214433D

 29 28  0  0  0  0  0  0  0  0999 V2000
    0.9125    0.0024   -0.0685 C   0  0  0  0  0  0  0  0  0  0  0  0
    2.4295    0.0105   -0.0687 C   0  0  0  0  0  0  0  0  0  0  0  0
    2.9576    1.4393   -0.0968 C   0  0  0  0  0  0  0  0  0  0  0  0
    4.4813    1.4504   -0.0970 C   0  0  0  0  0  0  0  0  0  0  0  0
    5.0020    2.8802   -0.1251 C   0  0  0  0  0  0  0  0  0  0  0  0
    6.5260    2.9093   -0.1256 C   0  0  0  0  0  0  0  0  0  0  0  0
    7.0157    4.3493   -0.1539 C   0  0  0  0  0  0  0  0  0  0  0  0
    8.4490    4.3667   -0.1543 O   0  0  0  0  0  0  0  0  0  0  0  0
    9.1422    5.5294   -0.1771 C   0  0  0  0  0  0  0  0  0  0  0  0
    8.3875    6.8308   -0.2027 C   0  0  0  0  0  0  0  0  0  0  0  0
   10.3721    5.5226   -0.1770 O   0  0  0  0  0  0  0  0  0  0  0  0
    0.5384   -1.0247   -0.0484 H   0  0  0  0  0  0  0  0  0  0  0  0
    0.5225    0.4941   -0.9655 H   0  0  0  0  0  0  0  0  0  0  0  0
    0.5225    0.5290    0.8084 H   0  0  0  0  0  0  0  0  0  0  0  0
    2.7991   -0.5411   -0.9410 H   0  0  0  0  0  0  0  0  0  0  0  0
    2.7991   -0.5065    0.8246 H   0  0  0  0  0  0  0  0  0  0  0  0
    2.5834    1.9905    0.7750 H   0  0  0  0  0  0  0  0  0  0  0  0
    2.5834    1.9559   -0.9894 H   0  0  0  0  0  0  0  0  0  0  0  0
    4.8558    0.9024   -0.9698 H   0  0  0  0  0  0  0  0  0  0  0  0
    4.8558    0.9371    0.7967 H   0  0  0  0  0  0  0  0  0  0  0  0
    4.6214    3.4279    0.7463 H   0  0  0  0  0  0  0  0  0  0  0  0
    4.6214    3.3933   -1.0173 H   0  0  0  0  0  0  0  0  0  0  0  0
    6.9195    2.3633   -0.9919 H   0  0  0  0  0  0  0  0  0  0  0  0
    6.9195    2.3977    0.7614 H   0  0  0  0  0  0  0  0  0  0  0  0
    6.6497    4.8715    0.7367 H   0  0  0  0  0  0  0  0  0  0  0  0
    6.6497    4.8361   -1.0644 H   0  0  0  0  0  0  0  0  0  0  0  0
    7.3038    6.7302   -0.2007 H   0  0  0  0  0  0  0  0  0  0  0  0
    8.6604    7.3778   -1.1093 H   0  0  0  0  0  0  0  0  0  0  0  0
    8.6604    7.4130    0.6818 H   0  0  0  0  0  0  0  0  0  0  0  0
  1  2  1  0  0  0  0
  1 12  1  0  0  0  0
  1 13  1  0  0  0  0
  1 14  1  0  0  0  0
  2  3  1  0  0  0  0
  2 15  1  0  0  0  0
  2 16  1  0  0  0  0
  3  4  1  0  0  0  0
  3 17  1  0  0  0  0
  3 18  1  0  0  0  0
  4  5  1  0  0  0  0
  4 19  1  0  0  0  0
  4 20  1  0  0  0  0
  5  6  1  0  0  0  0
  5 21  1  0  0  0  0
  5 22  1  0  0  0  0
  6  7  1  0  0  0  0
  6 23  1  0  0  0  0
  6 24  1  0  0  0  0
  7  8  1  0  0  0  0
  7 25  1  0  0  0  0
  7 26  1  0  0  0  0
  8  9  1  0  0  0  0
  9 10  1  0  0  0  0
  9 11  2  0  0  0  0
 10 27  1  0  0  0  0
 10 28  1  0  0  0  0
 10 29  1  0  0  0  0
M  END
$$$$
