
 OpenBabel07202215583D

 29 28  0  0  0  0  0  0  0  0999 V2000
    0.8968    0.0007    0.0547 C   0  0  0  0  0  0  0  0  0  0  0  0
    2.4135   -0.0071    0.0514 C   0  0  0  0  0  0  0  0  0  0  0  0
    2.9385   -1.3226   -0.5095 C   0  0  0  0  0  0  0  0  0  0  0  0
    4.4606   -1.3353   -0.5149 C   0  0  0  0  0  0  0  0  0  0  0  0
    4.9816   -2.6524   -1.0765 C   0  0  0  0  0  0  0  0  0  0  0  0
    6.5058   -2.6616   -1.0804 C   0  0  0  0  0  0  0  0  0  0  0  0
    7.0426   -3.9722   -1.6391 C   0  0  0  0  0  0  0  0  0  0  0  0
    8.5669   -3.9904   -1.6469 C   0  0  0  0  0  0  0  0  0  0  0  0
    8.9815   -5.2530   -2.1852 O   0  0  0  0  0  0  0  0  0  0  0  0
   10.3113   -5.4672   -2.2765 C   0  0  0  0  0  0  0  0  0  0  0  0
   10.8016   -6.4979   -2.7160 O   0  0  0  0  0  0  0  0  0  0  0  0
    0.5228    0.9457    0.4576 H   0  0  0  0  0  0  0  0  0  0  0  0
    0.5072   -0.8159    0.6709 H   0  0  0  0  0  0  0  0  0  0  0  0
    0.5072   -0.1201   -0.9612 H   0  0  0  0  0  0  0  0  0  0  0  0
    2.7837    0.1379    1.0730 H   0  0  0  0  0  0  0  0  0  0  0  0
    2.7837    0.8305   -0.5514 H   0  0  0  0  0  0  0  0  0  0  0  0
    2.5642   -1.4669   -1.5306 H   0  0  0  0  0  0  0  0  0  0  0  0
    2.5642   -2.1593    0.0933 H   0  0  0  0  0  0  0  0  0  0  0  0
    4.8361   -1.1925    0.5058 H   0  0  0  0  0  0  0  0  0  0  0  0
    4.8361   -0.4999   -1.1186 H   0  0  0  0  0  0  0  0  0  0  0  0
    4.6043   -2.7943   -2.0967 H   0  0  0  0  0  0  0  0  0  0  0  0
    4.6043   -3.4868   -0.4725 H   0  0  0  0  0  0  0  0  0  0  0  0
    6.8752   -2.5155   -0.0582 H   0  0  0  0  0  0  0  0  0  0  0  0
    6.8752   -1.8229   -1.6827 H   0  0  0  0  0  0  0  0  0  0  0  0
    6.6676   -4.1310   -2.6583 H   0  0  0  0  0  0  0  0  0  0  0  0
    6.6676   -4.8175   -1.0481 H   0  0  0  0  0  0  0  0  0  0  0  0
    8.9514   -3.8785   -0.6264 H   0  0  0  0  0  0  0  0  0  0  0  0
    8.9514   -3.1766   -2.2728 H   0  0  0  0  0  0  0  0  0  0  0  0
   10.9145   -4.6209   -1.9157 H   0  0  0  0  0  0  0  0  0  0  0  0
  1  2  1  0  0  0  0
  1 12  1  0  0  0  0
  1 13  1  0  0  0  0
  1 14  1  0  0  0  0
  2  3  1  0  0  0  0
  2 15  1  0  0  0  0
  2 16  1  0  0  0  0
  3  4  1  0  0  0  0
  3 17  1  0  0  0  0
  3 18  1  0  0  0  0
  4  5  1  0  0  0  0
  4 19  1  0  0  0  0
  4 20  1  0  0  0  0
  5  6  1  0  0  0  0
  5 21  1  0  0  0  0
  5 22  1  0  0  0  0
  6  7  1  0  0  0  0
  6 23  1  0  0  0  0
  6 24  1  0  0  0  0
  7  8  1  0  0  0  0
  7 25  1  0  0  0  0
  7 26  1  0  0  0  0
  8  9  1  0  0  0  0
  8 27  1  0  0  0  0
  8 28  1  0  0  0  0
  9 10  1  0  0  0  0
 10 11  2  0  0  0  0
 10 29  1  0  0  0  0
M  END
$$$$
