
 OpenBabel07122215493D

 24 25  0  0  0  0  0  0  0  0999 V2000
    0.9526    0.0185    0.0046 C   0  0  0  0  0  0  0  0  0  0  0  0
    2.4604   -0.0195   -0.0012 C   0  0  0  0  0  0  0  0  0  0  0  0
    3.0769   -1.0540   -0.2502 O   0  0  0  0  0  0  0  0  0  0  0  0
    3.1706    1.2568    0.3085 C   0  0  0  0  0  0  0  0  0  0  0  0
    4.5127    1.3134    0.3243 C   0  0  0  0  0  0  0  0  0  0  0  0
    5.2621    2.5510    0.5966 C   0  0  0  0  0  0  0  0  0  0  0  0
    6.3586    2.8866   -0.2298 C   0  0  0  0  0  0  0  0  0  0  0  0
    7.0804    4.0721   -0.0316 C   0  0  0  0  0  0  0  0  0  0  0  0
    6.6985    4.8903    1.0081 C   0  0  0  0  0  0  0  0  0  0  0  0
    7.2672    6.0808    1.3384 O   0  0  0  0  0  0  0  0  0  0  0  0
    6.4173    6.4930    2.4290 C   0  0  0  0  0  0  0  0  0  0  0  0
    5.4523    5.4891    2.8103 O   0  0  0  0  0  0  0  0  0  0  0  0
    5.6583    4.5555    1.8410 C   0  0  0  0  0  0  0  0  0  0  0  0
    4.9279    3.3951    1.6679 C   0  0  0  0  0  0  0  0  0  0  0  0
    0.5634   -0.9779   -0.2293 H   0  0  0  0  0  0  0  0  0  0  0  0
    0.5872    0.7153   -0.7544 H   0  0  0  0  0  0  0  0  0  0  0  0
    0.5847    0.3055    0.9933 H   0  0  0  0  0  0  0  0  0  0  0  0
    2.5532    2.1261    0.4996 H   0  0  0  0  0  0  0  0  0  0  0  0
    5.1071    0.4296    0.0956 H   0  0  0  0  0  0  0  0  0  0  0  0
    6.6471    2.2299   -1.0490 H   0  0  0  0  0  0  0  0  0  0  0  0
    7.9068    4.3429   -0.6794 H   0  0  0  0  0  0  0  0  0  0  0  0
    5.8753    7.3978    2.1275 H   0  0  0  0  0  0  0  0  0  0  0  0
    7.0435    6.7359    3.2953 H   0  0  0  0  0  0  0  0  0  0  0  0
    4.1195    3.1588    2.3505 H   0  0  0  0  0  0  0  0  0  0  0  0
  1  2  1  0  0  0  0
  1 15  1  0  0  0  0
  1 16  1  0  0  0  0
  1 17  1  0  0  0  0
  2  3  2  0  0  0  0
  2  4  1  0  0  0  0
  4  5  2  0  0  0  0
  4 18  1  0  0  0  0
  5  6  1  0  0  0  0
  5 19  1  0  0  0  0
  6  7  1  0  0  0  0
  6 14  2  0  0  0  0
  7  8  2  0  0  0  0
  7 20  1  0  0  0  0
  8  9  1  0  0  0  0
  8 21  1  0  0  0  0
  9 10  1  0  0  0  0
  9 13  2  0  0  0  0
 10 11  1  0  0  0  0
 11 12  1  0  0  0  0
 11 22  1  0  0  0  0
 11 23  1  0  0  0  0
 12 13  1  0  0  0  0
 13 14  1  0  0  0  0
 14 24  1  0  0  0  0
M  END
$$$$
