
 OpenBabel07222214433D

 29 30  0  0  0  0  0  0  0  0999 V2000
    0.9268   -0.0365   -0.0050 C   0  0  0  0  0  0  0  0  0  0  0  0
    2.4437   -0.0910   -0.0880 C   0  0  0  0  0  0  0  0  0  0  0  0
    3.0038   -1.2077   -1.0396 C   0  0  0  0  0  0  0  0  0  0  0  0
    1.8965   -1.8153   -1.9313 C   0  0  0  0  0  0  0  0  0  0  0  0
    1.2771   -1.1892   -2.7957 O   0  0  0  0  0  0  0  0  0  0  0  0
    1.5580   -3.1167   -1.7488 N   0  0  0  0  0  0  0  0  0  0  0  0
    2.1267   -3.9914   -0.8877 C   0  0  0  0  0  0  0  0  0  0  0  0
    1.7697   -5.1575   -0.8329 O   0  0  0  0  0  0  0  0  0  0  0  0
    3.1151   -3.5088   -0.0952 N   0  0  0  0  0  0  0  0  0  0  0  0
    3.6266   -2.2462   -0.0944 C   0  0  0  0  0  0  0  0  0  0  0  0
    4.5554   -1.9957    0.6788 O   0  0  0  0  0  0  0  0  0  0  0  0
    4.0441   -0.5812   -1.9874 C   0  0  0  0  0  0  0  0  0  0  0  0
    5.3738   -1.0145   -2.0632 C   0  0  0  0  0  0  0  0  0  0  0  0
    6.2774   -0.3663   -2.9025 C   0  0  0  0  0  0  0  0  0  0  0  0
    5.8436    0.6439   -3.7580 C   0  0  0  0  0  0  0  0  0  0  0  0
    4.5183    1.0558   -3.7355 C   0  0  0  0  0  0  0  0  0  0  0  0
    3.6369    0.4665   -2.8408 C   0  0  0  0  0  0  0  0  0  0  0  0
    0.6086    0.7354    0.6997 H   0  0  0  0  0  0  0  0  0  0  0  0
    0.5256   -0.9977    0.3293 H   0  0  0  0  0  0  0  0  0  0  0  0
    0.4909    0.2189   -0.9744 H   0  0  0  0  0  0  0  0  0  0  0  0
    2.8206   -0.2236    0.9361 H   0  0  0  0  0  0  0  0  0  0  0  0
    2.8069    0.9054   -0.3718 H   0  0  0  0  0  0  0  0  0  0  0  0
    0.8327   -3.4696   -2.3567 H   0  0  0  0  0  0  0  0  0  0  0  0
    3.5457   -4.1667    0.5390 H   0  0  0  0  0  0  0  0  0  0  0  0
    5.7475   -1.8441   -1.4675 H   0  0  0  0  0  0  0  0  0  0  0  0
    7.3253   -0.6515   -2.8816 H   0  0  0  0  0  0  0  0  0  0  0  0
    6.5407    1.1092   -4.4464 H   0  0  0  0  0  0  0  0  0  0  0  0
    4.1625    1.8383   -4.3990 H   0  0  0  0  0  0  0  0  0  0  0  0
    2.6059    0.8215   -2.8309 H   0  0  0  0  0  0  0  0  0  0  0  0
  1  2  1  0  0  0  0
  1 18  1  0  0  0  0
  1 19  1  0  0  0  0
  1 20  1  0  0  0  0
  2  3  1  0  0  0  0
  2 21  1  0  0  0  0
  2 22  1  0  0  0  0
  3  4  1  0  0  0  0
  3 10  1  0  0  0  0
  3 12  1  0  0  0  0
  4  5  2  0  0  0  0
  4  6  1  0  0  0  0
  6  7  1  0  0  0  0
  6 23  1  0  0  0  0
  7  8  2  0  0  0  0
  7  9  1  0  0  0  0
  9 10  1  0  0  0  0
  9 24  1  0  0  0  0
 10 11  2  0  0  0  0
 12 13  1  0  0  0  0
 12 17  2  0  0  0  0
 13 14  2  0  0  0  0
 13 25  1  0  0  0  0
 14 15  1  0  0  0  0
 14 26  1  0  0  0  0
 15 16  2  0  0  0  0
 15 27  1  0  0  0  0
 16 17  1  0  0  0  0
 16 28  1  0  0  0  0
 17 29  1  0  0  0  0
M  END
$$$$
