
 OpenBabel07222214433D

 31 30  0  0  0  0  0  0  0  0999 V2000
    1.0696    0.0239    0.0552 C   0  0  0  0  0  0  0  0  0  0  0  0
    2.5858    0.0186    0.0497 C   0  0  0  0  0  0  0  0  0  0  0  0
    3.1100   -0.9808   -0.9723 C   0  0  0  0  0  0  0  0  0  0  0  0
    4.6307   -0.9885   -0.9802 C   0  0  0  0  0  0  0  0  0  0  0  0
    5.1466   -1.9888   -2.0031 C   0  0  0  0  0  0  0  0  0  0  0  0
    6.6673   -1.9957   -2.0102 C   0  0  0  0  0  0  0  0  0  0  0  0
    7.1848   -2.9956   -3.0328 C   0  0  0  0  0  0  0  0  0  0  0  0
    8.7072   -3.0075   -3.0450 C   0  0  0  0  0  0  0  0  0  0  0  0
    9.2205   -4.0086   -4.0687 C   0  0  0  0  0  0  0  0  0  0  0  0
   10.7231   -4.0315   -4.0921 C   0  0  0  0  0  0  0  0  0  0  0  0
   11.3624   -4.7652   -4.8425 O   0  0  0  0  0  0  0  0  0  0  0  0
    0.6957    0.7420    0.7896 H   0  0  0  0  0  0  0  0  0  0  0  0
    0.6804   -0.9668    0.3109 H   0  0  0  0  0  0  0  0  0  0  0  0
    0.6804    0.3017   -0.9295 H   0  0  0  0  0  0  0  0  0  0  0  0
    2.9566   -0.2397    1.0485 H   0  0  0  0  0  0  0  0  0  0  0  0
    2.9566    1.0229   -0.1861 H   0  0  0  0  0  0  0  0  0  0  0  0
    2.7369   -0.7232   -1.9713 H   0  0  0  0  0  0  0  0  0  0  0  0
    2.7368   -1.9853   -0.7371 H   0  0  0  0  0  0  0  0  0  0  0  0
    5.0076   -1.2492    0.0164 H   0  0  0  0  0  0  0  0  0  0  0  0
    5.0076    0.0136   -1.2184 H   0  0  0  0  0  0  0  0  0  0  0  0
    4.7705   -1.7292   -3.0004 H   0  0  0  0  0  0  0  0  0  0  0  0
    4.7705   -2.9917   -1.7660 H   0  0  0  0  0  0  0  0  0  0  0  0
    7.0416   -2.2551   -1.0123 H   0  0  0  0  0  0  0  0  0  0  0  0
    7.0416   -0.9923   -2.2471 H   0  0  0  0  0  0  0  0  0  0  0  0
    6.8060   -2.7348   -4.0287 H   0  0  0  0  0  0  0  0  0  0  0  0
    6.8060   -3.9972   -2.7944 H   0  0  0  0  0  0  0  0  0  0  0  0
    9.0855   -3.2625   -2.0469 H   0  0  0  0  0  0  0  0  0  0  0  0
    9.0855   -2.0040   -3.2775 H   0  0  0  0  0  0  0  0  0  0  0  0
    8.8655   -3.7387   -5.0687 H   0  0  0  0  0  0  0  0  0  0  0  0
    8.8655   -5.0144   -3.8213 H   0  0  0  0  0  0  0  0  0  0  0  0
   11.2418   -3.3510   -3.3962 H   0  0  0  0  0  0  0  0  0  0  0  0
  1  2  1  0  0  0  0
  1 12  1  0  0  0  0
  1 13  1  0  0  0  0
  1 14  1  0  0  0  0
  2  3  1  0  0  0  0
  2 15  1  0  0  0  0
  2 16  1  0  0  0  0
  3  4  1  0  0  0  0
  3 17  1  0  0  0  0
  3 18  1  0  0  0  0
  4  5  1  0  0  0  0
  4 19  1  0  0  0  0
  4 20  1  0  0  0  0
  5  6  1  0  0  0  0
  5 21  1  0  0  0  0
  5 22  1  0  0  0  0
  6  7  1  0  0  0  0
  6 23  1  0  0  0  0
  6 24  1  0  0  0  0
  7  8  1  0  0  0  0
  7 25  1  0  0  0  0
  7 26  1  0  0  0  0
  8  9  1  0  0  0  0
  8 27  1  0  0  0  0
  8 28  1  0  0  0  0
  9 10  1  0  0  0  0
  9 29  1  0  0  0  0
  9 30  1  0  0  0  0
 10 11  2  0  0  0  0
 10 31  1  0  0  0  0
M  END
$$$$
