
 OpenBabel07222214433D

 29 28  0  0  1  0  0  0  0  0999 V2000
    3.1408   -0.0415   -1.3913 C   0  0  0  0  0  0  0  0  0  0  0  0
    2.6191   -0.0298    0.0535 C   0  0  2  0  0  0  0  0  0  0  0  0
    1.0754   -0.0518    0.0748 C   0  0  0  0  0  0  0  0  0  0  0  0
    0.4909    1.1119   -0.7169 C   0  0  0  0  0  0  0  0  0  0  0  0
   -0.9957    1.1571   -0.7408 C   0  0  0  0  0  0  0  0  0  0  0  0
   -1.6578    2.1197   -1.4078 C   0  0  0  0  0  0  0  0  0  0  0  0
   -0.9619    3.2228   -2.1689 C   0  0  0  0  0  0  0  0  0  0  0  0
   -3.1556    2.1371   -1.4244 C   0  0  0  0  0  0  0  0  0  0  0  0
    3.1509    1.1855    0.8323 C   0  0  0  0  0  0  0  0  0  0  0  0
    4.6530    1.2243    0.9003 C   0  0  0  0  0  0  0  0  0  0  0  0
    5.2685    2.1501    1.4289 O   0  0  0  0  0  0  0  0  0  0  0  0
    4.2293   -0.1137   -1.4336 H   0  0  0  0  0  0  0  0  0  0  0  0
    2.8747    0.8761   -1.9259 H   0  0  0  0  0  0  0  0  0  0  0  0
    2.7307   -0.8939   -1.9421 H   0  0  0  0  0  0  0  0  0  0  0  0
    2.9705   -0.9439    0.5497 H   0  0  0  0  0  0  0  0  0  0  0  0
    0.7160   -0.9981   -0.3496 H   0  0  0  0  0  0  0  0  0  0  0  0
    0.7137   -0.0154    1.1107 H   0  0  0  0  0  0  0  0  0  0  0  0
    0.8236    1.0432   -1.7576 H   0  0  0  0  0  0  0  0  0  0  0  0
    0.8510    2.0561   -0.2957 H   0  0  0  0  0  0  0  0  0  0  0  0
   -1.5367    0.3783   -0.2094 H   0  0  0  0  0  0  0  0  0  0  0  0
    0.1308    3.1595   -2.1263 H   0  0  0  0  0  0  0  0  0  0  0  0
   -1.2304    4.1996   -1.7573 H   0  0  0  0  0  0  0  0  0  0  0  0
   -1.2312    3.1868   -3.2282 H   0  0  0  0  0  0  0  0  0  0  0  0
   -3.5754    1.3020   -0.8523 H   0  0  0  0  0  0  0  0  0  0  0  0
   -3.5251    2.0552   -2.4506 H   0  0  0  0  0  0  0  0  0  0  0  0
   -3.5283    3.0645   -0.9806 H   0  0  0  0  0  0  0  0  0  0  0  0
    2.7686    1.1629    1.8596 H   0  0  0  0  0  0  0  0  0  0  0  0
    2.8339    2.1235    0.3662 H   0  0  0  0  0  0  0  0  0  0  0  0
    5.1970    0.3824    0.4473 H   0  0  0  0  0  0  0  0  0  0  0  0
  1 12  1  0  0  0  0
  1 13  1  0  0  0  0
  1 14  1  0  0  0  0
  2  9  1  0  0  0  0
  2  3  1  0  0  0  0
  2  1  1  0  0  0  0
  2 15  1  1  0  0  0
  3  4  1  0  0  0  0
  3 16  1  0  0  0  0
  3 17  1  0  0  0  0
  4  5  1  0  0  0  0
  4 18  1  0  0  0  0
  4 19  1  0  0  0  0
  5  6  2  0  0  0  0
  5 20  1  0  0  0  0
  6  7  1  0  0  0  0
  6  8  1  0  0  0  0
  7 21  1  0  0  0  0
  7 22  1  0  0  0  0
  7 23  1  0  0  0  0
  8 24  1  0  0  0  0
  8 25  1  0  0  0  0
  8 26  1  0  0  0  0
  9 10  1  0  0  0  0
  9 27  1  0  0  0  0
  9 28  1  0  0  0  0
 10 11  2  0  0  0  0
 10 29  1  0  0  0  0
M  END
$$$$
