
 OpenBabel07202215583D

 29 30  0  0  0  0  0  0  0  0999 V2000
    1.0925    0.1196   -0.0866 C   0  0  0  0  0  0  0  0  0  0  0  0
    2.6197    0.0753   -0.0387 C   0  0  0  0  0  0  0  0  0  0  0  0
    3.1206   -1.3483   -0.3426 C   0  0  0  0  0  0  0  0  0  0  0  0
    4.6508   -1.3809   -0.2780 C   0  0  0  0  0  0  0  0  0  0  0  0
    5.1745    0.0410   -0.0032 C   0  0  0  0  0  0  0  0  0  0  0  0
    4.6522    0.4542    1.3854 C   0  0  0  0  0  0  0  0  0  0  0  0
    3.1221    0.5163    1.3481 C   0  0  0  0  0  0  0  0  0  0  0  0
    4.6009    1.0108   -1.0726 C   0  0  0  0  0  0  0  0  0  0  0  0
    5.0594    2.4591   -0.8304 C   0  0  0  0  0  0  0  0  0  0  0  0
    5.0567    0.6269   -2.4908 C   0  0  0  0  0  0  0  0  0  0  0  0
    3.1526    0.9783   -1.0348 O   0  0  0  0  0  0  0  0  0  0  0  0
    0.6544   -0.5553    0.6579 H   0  0  0  0  0  0  0  0  0  0  0  0
    0.7188   -0.1717   -1.0741 H   0  0  0  0  0  0  0  0  0  0  0  0
    0.7195    1.1310    0.1072 H   0  0  0  0  0  0  0  0  0  0  0  0
    2.7960   -1.6589   -1.3435 H   0  0  0  0  0  0  0  0  0  0  0  0
    2.7050   -2.0693    0.3713 H   0  0  0  0  0  0  0  0  0  0  0  0
    5.0566   -1.7833   -1.2120 H   0  0  0  0  0  0  0  0  0  0  0  0
    4.9778   -2.0693    0.5096 H   0  0  0  0  0  0  0  0  0  0  0  0
    6.2721    0.0456   -0.0092 H   0  0  0  0  0  0  0  0  0  0  0  0
    5.0589    1.4227    1.6941 H   0  0  0  0  0  0  0  0  0  0  0  0
    4.9795   -0.2625    2.1474 H   0  0  0  0  0  0  0  0  0  0  0  0
    2.7983    1.5429    1.5598 H   0  0  0  0  0  0  0  0  0  0  0  0
    2.7066   -0.1237    2.1356 H   0  0  0  0  0  0  0  0  0  0  0  0
    6.1537    2.5238   -0.8028 H   0  0  0  0  0  0  0  0  0  0  0  0
    4.6622    2.8716    0.1012 H   0  0  0  0  0  0  0  0  0  0  0  0
    4.6988    3.1243   -1.6230 H   0  0  0  0  0  0  0  0  0  0  0  0
    6.1509    0.5912   -2.5541 H   0  0  0  0  0  0  0  0  0  0  0  0
    4.6964    1.3510   -3.2301 H   0  0  0  0  0  0  0  0  0  0  0  0
    4.6575   -0.3401   -2.8093 H   0  0  0  0  0  0  0  0  0  0  0  0
  1  2  1  0  0  0  0
  1 12  1  0  0  0  0
  1 13  1  0  0  0  0
  1 14  1  0  0  0  0
  2  3  1  0  0  0  0
  2  7  1  0  0  0  0
  2 11  1  0  0  0  0
  3  4  1  0  0  0  0
  3 15  1  0  0  0  0
  3 16  1  0  0  0  0
  4  5  1  0  0  0  0
  4 17  1  0  0  0  0
  4 18  1  0  0  0  0
  5  6  1  0  0  0  0
  5  8  1  0  0  0  0
  5 19  1  0  0  0  0
  6  7  1  0  0  0  0
  6 20  1  0  0  0  0
  6 21  1  0  0  0  0
  7 22  1  0  0  0  0
  7 23  1  0  0  0  0
  8  9  1  0  0  0  0
  8 10  1  0  0  0  0
  8 11  1  0  0  0  0
  9 24  1  0  0  0  0
  9 25  1  0  0  0  0
  9 26  1  0  0  0  0
 10 27  1  0  0  0  0
 10 28  1  0  0  0  0
 10 29  1  0  0  0  0
M  END
$$$$
