
 OpenBabel07202215583D

 21 20  0  0  0  0  0  0  0  0999 V2000
    1.0251   -0.0599    0.1196 C   0  0  0  0  0  0  0  0  0  0  0  0
    2.5241   -0.0286    0.0697 C   0  0  0  0  0  0  0  0  0  0  0  0
    3.1574    0.5295   -0.8199 O   0  0  0  0  0  0  0  0  0  0  0  0
    3.0737   -0.6927    1.1282 O   0  0  0  0  0  0  0  0  0  0  0  0
    4.5072   -0.6758    1.1013 C   0  0  0  0  0  0  0  0  0  0  0  0
    5.0739   -1.4177    2.2838 C   0  0  0  0  0  0  0  0  0  0  0  0
    6.3973   -1.5626    2.5149 C   0  0  0  0  0  0  0  0  0  0  0  0
    7.4515   -0.9893    1.6011 C   0  0  0  0  0  0  0  0  0  0  0  0
    6.9239   -2.3137    3.7120 C   0  0  0  0  0  0  0  0  0  0  0  0
    0.6288    0.4830   -0.7458 H   0  0  0  0  0  0  0  0  0  0  0  0
    0.6631    0.4352    1.0235 H   0  0  0  0  0  0  0  0  0  0  0  0
    0.6631   -1.0892    0.0671 H   0  0  0  0  0  0  0  0  0  0  0  0
    4.8504    0.3652    1.1390 H   0  0  0  0  0  0  0  0  0  0  0  0
    4.8504   -1.1627    0.1804 H   0  0  0  0  0  0  0  0  0  0  0  0
    4.3589   -1.8533    2.9781 H   0  0  0  0  0  0  0  0  0  0  0  0
    7.0255   -0.4539    0.7476 H   0  0  0  0  0  0  0  0  0  0  0  0
    8.0820   -1.7857    1.1939 H   0  0  0  0  0  0  0  0  0  0  0  0
    8.0820   -0.2762    2.1410 H   0  0  0  0  0  0  0  0  0  0  0  0
    6.1182   -2.7079    4.3403 H   0  0  0  0  0  0  0  0  0  0  0  0
    7.5403   -1.6592    4.3384 H   0  0  0  0  0  0  0  0  0  0  0  0
    7.5403   -3.1624    3.3953 H   0  0  0  0  0  0  0  0  0  0  0  0
  1  2  1  0  0  0  0
  1 10  1  0  0  0  0
  1 11  1  0  0  0  0
  1 12  1  0  0  0  0
  2  3  2  0  0  0  0
  2  4  1  0  0  0  0
  4  5  1  0  0  0  0
  5  6  1  0  0  0  0
  5 13  1  0  0  0  0
  5 14  1  0  0  0  0
  6  7  2  0  0  0  0
  6 15  1  0  0  0  0
  7  8  1  0  0  0  0
  7  9  1  0  0  0  0
  8 16  1  0  0  0  0
  8 17  1  0  0  0  0
  8 18  1  0  0  0  0
  9 19  1  0  0  0  0
  9 20  1  0  0  0  0
  9 21  1  0  0  0  0
M  END
$$$$
