
 OpenBabel07222214433D

 20 19  0  0  0  0  0  0  0  0999 V2000
    1.0809   -0.0408   -0.0172 C   0  0  0  0  0  0  0  0  0  0  0  0
    2.6012   -0.0565   -0.0501 C   0  0  0  0  0  0  0  0  0  0  0  0
    3.1146    1.1726    0.6707 C   0  0  0  0  0  0  0  0  0  0  0  0
    4.6321    1.2433    0.7498 C   0  0  0  0  0  0  0  0  0  0  0  0
    5.0935    2.5009    1.4870 C   0  0  0  0  0  0  0  0  0  0  0  0
    4.7115    2.5588    2.9677 C   0  0  0  0  0  0  0  0  0  0  0  0
    5.4937    2.5026    3.9110 O   0  0  0  0  0  0  0  0  0  0  0  0
    3.3883    2.7194    3.2195 O   0  0  0  0  0  0  0  0  0  0  0  0
    7.0647    2.5457    1.3622 Br  0  0  0  0  0  0  0  0  0  0  0  0
    0.6803   -0.9305   -0.5060 H   0  0  0  0  0  0  0  0  0  0  0  0
    0.6915    0.8477   -0.5256 H   0  0  0  0  0  0  0  0  0  0  0  0
    0.7128   -0.0205    1.0158 H   0  0  0  0  0  0  0  0  0  0  0  0
    2.9653   -0.0809   -1.0810 H   0  0  0  0  0  0  0  0  0  0  0  0
    2.9675   -0.9525    0.4637 H   0  0  0  0  0  0  0  0  0  0  0  0
    2.7043    1.0969    1.6782 H   0  0  0  0  0  0  0  0  0  0  0  0
    2.7255    2.0869    0.2041 H   0  0  0  0  0  0  0  0  0  0  0  0
    5.0404    1.2322   -0.2710 H   0  0  0  0  0  0  0  0  0  0  0  0
    5.0139    0.3443    1.2493 H   0  0  0  0  0  0  0  0  0  0  0  0
    4.7754    3.4183    0.9813 H   0  0  0  0  0  0  0  0  0  0  0  0
    2.7824    2.8128    2.4622 H   0  0  0  0  0  0  0  0  0  0  0  0
  1  2  1  0  0  0  0
  1 10  1  0  0  0  0
  1 11  1  0  0  0  0
  1 12  1  0  0  0  0
  2  3  1  0  0  0  0
  2 13  1  0  0  0  0
  2 14  1  0  0  0  0
  3  4  1  0  0  0  0
  3 15  1  0  0  0  0
  3 16  1  0  0  0  0
  4  5  1  0  0  0  0
  4 17  1  0  0  0  0
  4 18  1  0  0  0  0
  5  6  1  0  0  0  0
  5  9  1  0  0  0  0
  5 19  1  0  0  0  0
  6  7  2  0  0  0  0
  6  8  1  0  0  0  0
  8 20  1  0  0  0  0
M  END
$$$$
