
 OpenBabel07202215583D

 27 27  0  0  0  0  0  0  0  0999 V2000
    1.0168   -0.0961   -0.0277 C   0  0  0  0  0  0  0  0  0  0  0  0
    2.5271   -0.0689   -0.0368 C   0  0  0  0  0  0  0  0  0  0  0  0
    3.0113    1.3319   -0.3957 C   0  0  0  0  0  0  0  0  0  0  0  0
    4.5180    1.3373   -0.3830 C   0  0  0  0  0  0  0  0  0  0  0  0
    5.1197    2.6915   -0.7260 C   0  0  0  0  0  0  0  0  0  0  0  0
    6.6539    2.6638   -0.7228 C   0  0  0  0  0  0  0  0  0  0  0  0
    7.3026    1.3109   -0.4839 C   0  0  0  0  0  0  0  0  0  0  0  0
    8.5491    1.6251    0.2886 C   0  0  0  0  0  0  0  0  0  0  0  0
    8.2514    2.9647    0.8878 C   0  0  0  0  0  0  0  0  0  0  0  0
    8.9208    3.5122    1.7428 O   0  0  0  0  0  0  0  0  0  0  0  0
    7.1320    3.5057    0.3307 O   0  0  0  0  0  0  0  0  0  0  0  0
    0.6553   -1.0947    0.2266 H   0  0  0  0  0  0  0  0  0  0  0  0
    0.6276    0.1789   -1.0126 H   0  0  0  0  0  0  0  0  0  0  0  0
    0.6298    0.6155    0.7082 H   0  0  0  0  0  0  0  0  0  0  0  0
    2.9112   -0.8002   -0.7593 H   0  0  0  0  0  0  0  0  0  0  0  0
    2.9114   -0.3635    0.9483 H   0  0  0  0  0  0  0  0  0  0  0  0
    2.6386    2.0605    0.3326 H   0  0  0  0  0  0  0  0  0  0  0  0
    2.6461    1.6226   -1.3863 H   0  0  0  0  0  0  0  0  0  0  0  0
    4.8774    0.5867   -1.0993 H   0  0  0  0  0  0  0  0  0  0  0  0
    4.8354    1.0444    0.6251 H   0  0  0  0  0  0  0  0  0  0  0  0
    4.7439    3.4495   -0.0262 H   0  0  0  0  0  0  0  0  0  0  0  0
    4.7682    2.9895   -1.7221 H   0  0  0  0  0  0  0  0  0  0  0  0
    7.0144    3.1001   -1.6632 H   0  0  0  0  0  0  0  0  0  0  0  0
    7.4739    0.7658   -1.4165 H   0  0  0  0  0  0  0  0  0  0  0  0
    6.7228    0.6436    0.1578 H   0  0  0  0  0  0  0  0  0  0  0  0
    9.4175    1.6809   -0.3664 H   0  0  0  0  0  0  0  0  0  0  0  0
    8.6974    0.8853    1.0814 H   0  0  0  0  0  0  0  0  0  0  0  0
  1  2  1  0  0  0  0
  1 12  1  0  0  0  0
  1 13  1  0  0  0  0
  1 14  1  0  0  0  0
  2  3  1  0  0  0  0
  2 15  1  0  0  0  0
  2 16  1  0  0  0  0
  3  4  1  0  0  0  0
  3 17  1  0  0  0  0
  3 18  1  0  0  0  0
  4  5  1  0  0  0  0
  4 19  1  0  0  0  0
  4 20  1  0  0  0  0
  5  6  1  0  0  0  0
  5 21  1  0  0  0  0
  5 22  1  0  0  0  0
  6  7  1  0  0  0  0
  6 11  1  0  0  0  0
  6 23  1  0  0  0  0
  7  8  1  0  0  0  0
  7 24  1  0  0  0  0
  7 25  1  0  0  0  0
  8  9  1  0  0  0  0
  8 26  1  0  0  0  0
  8 27  1  0  0  0  0
  9 10  2  0  0  0  0
  9 11  1  0  0  0  0
M  END
$$$$
