
 OpenBabel07122215493D

 26 25  0  0  0  0  0  0  0  0999 V2000
    0.9163   -0.0776   -0.0659 C   0  0  0  0  0  0  0  0  0  0  0  0
    2.4339   -0.0753   -0.0658 C   0  0  0  0  0  0  0  0  0  0  0  0
    2.9919   -1.0799    0.9451 C   0  0  0  0  0  0  0  0  0  0  0  0
    4.5347   -1.1054    1.0064 C   0  0  0  0  0  0  0  0  0  0  0  0
    5.0775    0.2753    1.3716 C   0  0  0  0  0  0  0  0  0  0  0  0
    4.9912   -2.1540    2.0230 C   0  0  0  0  0  0  0  0  0  0  0  0
    4.2285   -2.8536    2.6825 O   0  0  0  0  0  0  0  0  0  0  0  0
    6.3536   -2.2419    2.0903 O   0  0  0  0  0  0  0  0  0  0  0  0
    6.8259   -3.2096    3.0458 C   0  0  0  0  0  0  0  0  0  0  0  0
    8.3449   -3.2216    3.0601 C   0  0  0  0  0  0  0  0  0  0  0  0
    0.5411    0.6576   -0.7842 H   0  0  0  0  0  0  0  0  0  0  0  0
    0.5316    0.1892    0.9240 H   0  0  0  0  0  0  0  0  0  0  0  0
    0.5251   -1.0615   -0.3384 H   0  0  0  0  0  0  0  0  0  0  0  0
    2.7548    0.9421    0.1766 H   0  0  0  0  0  0  0  0  0  0  0  0
    2.8081   -0.3083   -1.0689 H   0  0  0  0  0  0  0  0  0  0  0  0
    2.6217   -2.0827    0.6927 H   0  0  0  0  0  0  0  0  0  0  0  0
    2.5919   -0.8480    1.9414 H   0  0  0  0  0  0  0  0  0  0  0  0
    4.9148   -1.4077    0.0221 H   0  0  0  0  0  0  0  0  0  0  0  0
    4.7063    0.5882    2.3536 H   0  0  0  0  0  0  0  0  0  0  0  0
    4.7797    1.0345    0.6417 H   0  0  0  0  0  0  0  0  0  0  0  0
    6.1699    0.2853    1.3996 H   0  0  0  0  0  0  0  0  0  0  0  0
    6.4606   -4.2066    2.7732 H   0  0  0  0  0  0  0  0  0  0  0  0
    6.4598   -2.9483    4.0457 H   0  0  0  0  0  0  0  0  0  0  0  0
    8.7424   -3.4739    2.0720 H   0  0  0  0  0  0  0  0  0  0  0  0
    8.7206   -3.9537    3.7831 H   0  0  0  0  0  0  0  0  0  0  0  0
    8.7406   -2.2364    3.3264 H   0  0  0  0  0  0  0  0  0  0  0  0
  1  2  1  0  0  0  0
  1 11  1  0  0  0  0
  1 12  1  0  0  0  0
  1 13  1  0  0  0  0
  2  3  1  0  0  0  0
  2 14  1  0  0  0  0
  2 15  1  0  0  0  0
  3  4  1  0  0  0  0
  3 16  1  0  0  0  0
  3 17  1  0  0  0  0
  4  5  1  0  0  0  0
  4  6  1  0  0  0  0
  4 18  1  0  0  0  0
  5 19  1  0  0  0  0
  5 20  1  0  0  0  0
  5 21  1  0  0  0  0
  6  7  2  0  0  0  0
  6  8  1  0  0  0  0
  8  9  1  0  0  0  0
  9 10  1  0  0  0  0
  9 22  1  0  0  0  0
  9 23  1  0  0  0  0
 10 24  1  0  0  0  0
 10 25  1  0  0  0  0
 10 26  1  0  0  0  0
M  END
$$$$
