
 OpenBabel07222214433D

 18 18  0  0  0  0  0  0  0  0999 V2000
    1.1376    0.0421    0.0390 C   0  0  0  0  0  0  0  0  0  0  0  0
    2.5729    0.0385    0.0564 O   0  0  0  0  0  0  0  0  0  0  0  0
    3.1308   -0.7109   -0.9269 C   0  0  0  0  0  0  0  0  0  0  0  0
    2.5200   -1.3418   -1.7818 O   0  0  0  0  0  0  0  0  0  0  0  0
    4.6142   -0.6837   -0.8685 C   0  0  0  0  0  0  0  0  0  0  0  0
    5.3379   -0.6815   -2.0701 C   0  0  0  0  0  0  0  0  0  0  0  0
    6.7254   -0.8554   -2.0580 C   0  0  0  0  0  0  0  0  0  0  0  0
    7.4034   -0.9681   -0.8453 C   0  0  0  0  0  0  0  0  0  0  0  0
    6.6910   -0.9434    0.3547 C   0  0  0  0  0  0  0  0  0  0  0  0
    5.2973   -0.8071    0.3468 C   0  0  0  0  0  0  0  0  0  0  0  0
    0.7814    0.7089    0.8304 H   0  0  0  0  0  0  0  0  0  0  0  0
    0.7488   -0.9623    0.2388 H   0  0  0  0  0  0  0  0  0  0  0  0
    0.7542    0.4159   -0.9172 H   0  0  0  0  0  0  0  0  0  0  0  0
    4.8222   -0.5638   -3.0207 H   0  0  0  0  0  0  0  0  0  0  0  0
    7.2754   -0.9281   -2.9938 H   0  0  0  0  0  0  0  0  0  0  0  0
    8.4856   -1.0835   -0.8366 H   0  0  0  0  0  0  0  0  0  0  0  0
    7.2221   -1.0625    1.2963 H   0  0  0  0  0  0  0  0  0  0  0  0
    4.7520   -0.8359    1.2860 H   0  0  0  0  0  0  0  0  0  0  0  0
  1  2  1  0  0  0  0
  1 11  1  0  0  0  0
  1 12  1  0  0  0  0
  1 13  1  0  0  0  0
  2  3  1  0  0  0  0
  3  4  2  0  0  0  0
  3  5  1  0  0  0  0
  5  6  2  0  0  0  0
  5 10  1  0  0  0  0
  6  7  1  0  0  0  0
  6 14  1  0  0  0  0
  7  8  2  0  0  0  0
  7 15  1  0  0  0  0
  8  9  1  0  0  0  0
  8 16  1  0  0  0  0
  9 10  2  0  0  0  0
  9 17  1  0  0  0  0
 10 18  1  0  0  0  0
M  END
$$$$
