
 OpenBabel07202215583D

 17 16  0  0  0  0  0  0  0  0999 V2000
    1.0465   -0.0668    0.0631 C   0  0  0  0  0  0  0  0  0  0  0  0
    2.5775   -0.0008    0.0667 C   0  0  0  0  0  0  0  0  0  0  0  0
    2.9953    1.4444    0.3581 C   0  0  0  0  0  0  0  0  0  0  0  0
    3.1617   -0.9687    1.1014 C   0  0  0  0  0  0  0  0  0  0  0  0
    4.6732   -1.0844    1.1686 C   0  0  0  0  0  0  0  0  0  0  0  0
    5.3986   -0.4443    0.2339 O   0  0  0  0  0  0  0  0  0  0  0  0
    5.2287   -1.7582    2.0323 O   0  0  0  0  0  0  0  0  0  0  0  0
    0.6402    0.5980   -0.7076 H   0  0  0  0  0  0  0  0  0  0  0  0
    0.6365    0.2508    1.0283 H   0  0  0  0  0  0  0  0  0  0  0  0
    0.6854   -1.0792   -0.1433 H   0  0  0  0  0  0  0  0  0  0  0  0
    2.9243   -0.2993   -0.9309 H   0  0  0  0  0  0  0  0  0  0  0  0
    2.6009    1.7724    1.3245 H   0  0  0  0  0  0  0  0  0  0  0  0
    2.6226    2.1117   -0.4238 H   0  0  0  0  0  0  0  0  0  0  0  0
    4.0770    1.5859    0.4038 H   0  0  0  0  0  0  0  0  0  0  0  0
    2.7806   -1.9800    0.9052 H   0  0  0  0  0  0  0  0  0  0  0  0
    2.8118   -0.6774    2.1006 H   0  0  0  0  0  0  0  0  0  0  0  0
    4.9198    0.0552   -0.4502 H   0  0  0  0  0  0  0  0  0  0  0  0
  1  2  1  0  0  0  0
  1  8  1  0  0  0  0
  1  9  1  0  0  0  0
  1 10  1  0  0  0  0
  2  3  1  0  0  0  0
  2  4  1  0  0  0  0
  2 11  1  0  0  0  0
  3 12  1  0  0  0  0
  3 13  1  0  0  0  0
  3 14  1  0  0  0  0
  4  5  1  0  0  0  0
  4 15  1  0  0  0  0
  4 16  1  0  0  0  0
  5  6  1  0  0  0  0
  5  7  2  0  0  0  0
  6 17  1  0  0  0  0
M  END
$$$$
