
 OpenBabel07202215583D

 17 17  0  0  0  0  0  0  0  0999 V2000
    1.0363    0.1178    0.0227 C   0  0  0  0  0  0  0  0  0  0  0  0
    2.5551    0.0111    0.0415 C   0  0  0  0  0  0  0  0  0  0  0  0
    3.0779   -1.2100   -0.6248 C   0  0  0  0  0  0  0  0  0  0  0  0
    4.0715   -0.8831   -1.4499 C   0  0  0  0  0  0  0  0  0  0  0  0
    4.2378    0.5826   -1.3770 C   0  0  0  0  0  0  0  0  0  0  0  0
    5.1472    1.2358   -1.8609 O   0  0  0  0  0  0  0  0  0  0  0  0
    3.1825    1.0864   -0.6661 O   0  0  0  0  0  0  0  0  0  0  0  0
    4.8177   -1.7147   -2.2341 O   0  0  0  0  0  0  0  0  0  0  0  0
    2.5386   -2.5703   -0.3813 C   0  0  0  0  0  0  0  0  0  0  0  0
    0.5925   -0.6792    0.6308 H   0  0  0  0  0  0  0  0  0  0  0  0
    0.6315    0.0370   -0.9914 H   0  0  0  0  0  0  0  0  0  0  0  0
    0.6977    1.0720    0.4377 H   0  0  0  0  0  0  0  0  0  0  0  0
    2.9004    0.0748    1.0794 H   0  0  0  0  0  0  0  0  0  0  0  0
    4.4902   -2.6219   -2.1209 H   0  0  0  0  0  0  0  0  0  0  0  0
    1.7267   -2.5672    0.3500 H   0  0  0  0  0  0  0  0  0  0  0  0
    3.3227   -3.2294    0.0008 H   0  0  0  0  0  0  0  0  0  0  0  0
    2.1430   -2.9861   -1.3137 H   0  0  0  0  0  0  0  0  0  0  0  0
  1  2  1  0  0  0  0
  1 10  1  0  0  0  0
  1 11  1  0  0  0  0
  1 12  1  0  0  0  0
  2  3  1  0  0  0  0
  2  7  1  0  0  0  0
  2 13  1  0  0  0  0
  3  4  2  0  0  0  0
  3  9  1  0  0  0  0
  4  5  1  0  0  0  0
  4  8  1  0  0  0  0
  5  6  2  0  0  0  0
  5  7  1  0  0  0  0
  8 14  1  0  0  0  0
  9 15  1  0  0  0  0
  9 16  1  0  0  0  0
  9 17  1  0  0  0  0
M  END
$$$$
