
 OpenBabel07222214433D

 23 23  0  0  0  0  0  0  0  0999 V2000
    0.9238   -0.0077    0.0756 C   0  0  0  0  0  0  0  0  0  0  0  0
    2.3385    0.1148    0.1495 O   0  0  0  0  0  0  0  0  0  0  0  0
    3.0135   -0.9129    0.7439 C   0  0  0  0  0  0  0  0  0  0  0  0
    4.2238   -0.5661    1.3456 C   0  0  0  0  0  0  0  0  0  0  0  0
    5.0696   -1.5496    1.8739 C   0  0  0  0  0  0  0  0  0  0  0  0
    4.6906   -2.8982    1.8592 C   0  0  0  0  0  0  0  0  0  0  0  0
    5.5558   -3.9005    2.5072 C   0  0  0  0  0  0  0  0  0  0  0  0
    5.2606   -5.2099    2.6217 C   0  0  0  0  0  0  0  0  0  0  0  0
    6.1077   -6.2099    3.3307 C   0  0  0  0  0  0  0  0  0  0  0  0
    3.4721   -3.2293    1.2510 C   0  0  0  0  0  0  0  0  0  0  0  0
    2.6389   -2.2505    0.6998 C   0  0  0  0  0  0  0  0  0  0  0  0
    0.5563    0.8160   -0.5444 H   0  0  0  0  0  0  0  0  0  0  0  0
    0.4902    0.0980    1.0743 H   0  0  0  0  0  0  0  0  0  0  0  0
    0.5882   -0.9336   -0.3997 H   0  0  0  0  0  0  0  0  0  0  0  0
    4.5105    0.4809    1.4062 H   0  0  0  0  0  0  0  0  0  0  0  0
    6.0265   -1.2433    2.2905 H   0  0  0  0  0  0  0  0  0  0  0  0
    6.4739   -3.5252    2.9532 H   0  0  0  0  0  0  0  0  0  0  0  0
    4.3486   -5.6195    2.2042 H   0  0  0  0  0  0  0  0  0  0  0  0
    7.0054   -5.7635    3.7662 H   0  0  0  0  0  0  0  0  0  0  0  0
    6.4105   -6.9949    2.6313 H   0  0  0  0  0  0  0  0  0  0  0  0
    5.5272   -6.6734    4.1352 H   0  0  0  0  0  0  0  0  0  0  0  0
    3.1446   -4.2613    1.1761 H   0  0  0  0  0  0  0  0  0  0  0  0
    1.7243   -2.5813    0.2223 H   0  0  0  0  0  0  0  0  0  0  0  0
  1  2  1  0  0  0  0
  1 12  1  0  0  0  0
  1 13  1  0  0  0  0
  1 14  1  0  0  0  0
  2  3  1  0  0  0  0
  3  4  1  0  0  0  0
  3 11  2  0  0  0  0
  4  5  2  0  0  0  0
  4 15  1  0  0  0  0
  5  6  1  0  0  0  0
  5 16  1  0  0  0  0
  6  7  1  0  0  0  0
  6 10  2  0  0  0  0
  7  8  2  0  0  0  0
  7 17  1  0  0  0  0
  8  9  1  0  0  0  0
  8 18  1  0  0  0  0
  9 19  1  0  0  0  0
  9 20  1  0  0  0  0
  9 21  1  0  0  0  0
 10 11  1  0  0  0  0
 10 22  1  0  0  0  0
 11 23  1  0  0  0  0
M  END
$$$$
