
 OpenBabel07122215493D

 20 19  0  0  0  0  0  0  0  0999 V2000
    1.0577    0.0412   -0.0260 C   0  0  0  0  0  0  0  0  0  0  0  0
    2.5730    0.0533   -0.0277 C   0  0  0  0  0  0  0  0  0  0  0  0
    3.0997    1.4709   -0.2283 C   0  0  0  0  0  0  0  0  0  0  0  0
    4.6210    1.4612   -0.2270 C   0  0  0  0  0  0  0  0  0  0  0  0
    5.1998    2.8533   -0.4240 C   0  0  0  0  0  0  0  0  0  0  0  0
    6.7105    2.9292   -0.4347 C   0  0  0  0  0  0  0  0  0  0  0  0
    7.3892    1.7772   -0.2717 O   0  0  0  0  0  0  0  0  0  0  0  0
    7.3020    3.9924   -0.5852 O   0  0  0  0  0  0  0  0  0  0  0  0
    0.6866   -0.9770    0.1181 H   0  0  0  0  0  0  0  0  0  0  0  0
    0.6681    0.4202   -0.9759 H   0  0  0  0  0  0  0  0  0  0  0  0
    0.6681    0.6689    0.7815 H   0  0  0  0  0  0  0  0  0  0  0  0
    2.9444   -0.6001   -0.8264 H   0  0  0  0  0  0  0  0  0  0  0  0
    2.9444   -0.3529    0.9209 H   0  0  0  0  0  0  0  0  0  0  0  0
    2.7297    2.1234    0.5717 H   0  0  0  0  0  0  0  0  0  0  0  0
    2.7297    1.8758   -1.1780 H   0  0  0  0  0  0  0  0  0  0  0  0
    4.9752    0.8001   -1.0274 H   0  0  0  0  0  0  0  0  0  0  0  0
    4.9752    1.0481    0.7255 H   0  0  0  0  0  0  0  0  0  0  0  0
    4.8436    3.5094    0.3797 H   0  0  0  0  0  0  0  0  0  0  0  0
    4.8436    3.2606   -1.3781 H   0  0  0  0  0  0  0  0  0  0  0  0
    6.8732    0.9603   -0.1561 H   0  0  0  0  0  0  0  0  0  0  0  0
  1  2  1  0  0  0  0
  1  9  1  0  0  0  0
  1 10  1  0  0  0  0
  1 11  1  0  0  0  0
  2  3  1  0  0  0  0
  2 12  1  0  0  0  0
  2 13  1  0  0  0  0
  3  4  1  0  0  0  0
  3 14  1  0  0  0  0
  3 15  1  0  0  0  0
  4  5  1  0  0  0  0
  4 16  1  0  0  0  0
  4 17  1  0  0  0  0
  5  6  1  0  0  0  0
  5 18  1  0  0  0  0
  5 19  1  0  0  0  0
  6  7  1  0  0  0  0
  6  8  2  0  0  0  0
  7 20  1  0  0  0  0
M  END
$$$$
