
 OpenBabel07202215583D

 27 27  0  0  1  0  0  0  0  0999 V2000
    0.9426    0.0732    0.1399 C   0  0  0  0  0  0  0  0  0  0  0  0
    2.4751    0.0677    0.0867 C   0  0  2  0  0  0  0  0  0  0  0  0
    2.9834    1.1066   -0.9282 C   0  0  0  0  0  0  0  0  0  0  0  0
    2.5621    0.7539   -2.3574 C   0  0  0  0  0  0  0  0  0  0  0  0
    3.0253   -0.6355   -2.7082 C   0  0  0  0  0  0  0  0  0  0  0  0
    3.8259   -1.0016   -3.7292 C   0  0  0  0  0  0  0  0  0  0  0  0
    4.3001   -2.4205   -3.9470 C   0  0  0  0  0  0  0  0  0  0  0  0
    4.3422   -0.0098   -4.7388 C   0  0  0  0  0  0  0  0  0  0  0  0
    2.5762   -1.6416   -1.6941 C   0  0  0  0  0  0  0  0  0  0  0  0
    1.8809   -2.6110   -1.9908 O   0  0  0  0  0  0  0  0  0  0  0  0
    2.9946   -1.3269   -0.2810 C   0  0  0  0  0  0  0  0  0  0  0  0
    0.5718    1.0640    0.4175 H   0  0  0  0  0  0  0  0  0  0  0  0
    0.5770   -0.6580    0.8651 H   0  0  0  0  0  0  0  0  0  0  0  0
    0.4913   -0.1848   -0.8243 H   0  0  0  0  0  0  0  0  0  0  0  0
    2.8574    0.3331    1.0796 H   0  0  0  0  0  0  0  0  0  0  0  0
    4.0801    1.1622   -0.8777 H   0  0  0  0  0  0  0  0  0  0  0  0
    2.6071    2.1035   -0.6726 H   0  0  0  0  0  0  0  0  0  0  0  0
    2.9445    1.5300   -3.0200 H   0  0  0  0  0  0  0  0  0  0  0  0
    1.4726    0.7986   -2.4667 H   0  0  0  0  0  0  0  0  0  0  0  0
    3.9515   -3.1249   -3.1870 H   0  0  0  0  0  0  0  0  0  0  0  0
    5.3939   -2.4639   -3.9244 H   0  0  0  0  0  0  0  0  0  0  0  0
    3.9509   -2.7929   -4.9146 H   0  0  0  0  0  0  0  0  0  0  0  0
    4.0083    1.0135   -4.5605 H   0  0  0  0  0  0  0  0  0  0  0  0
    3.9965   -0.2747   -5.7413 H   0  0  0  0  0  0  0  0  0  0  0  0
    5.4357    0.0178   -4.7238 H   0  0  0  0  0  0  0  0  0  0  0  0
    4.0907   -1.3662   -0.2365 H   0  0  0  0  0  0  0  0  0  0  0  0
    2.6096   -2.0928    0.3995 H   0  0  0  0  0  0  0  0  0  0  0  0
  1  2  1  0  0  0  0
  1 12  1  0  0  0  0
  1 13  1  0  0  0  0
  1 14  1  0  0  0  0
  2  3  1  0  0  0  0
  2 11  1  0  0  0  0
  2 15  1  1  0  0  0
  3  4  1  0  0  0  0
  3 16  1  0  0  0  0
  3 17  1  0  0  0  0
  4  5  1  0  0  0  0
  4 18  1  0  0  0  0
  4 19  1  0  0  0  0
  5  6  2  0  0  0  0
  5  9  1  0  0  0  0
  6  7  1  0  0  0  0
  6  8  1  0  0  0  0
  7 20  1  0  0  0  0
  7 21  1  0  0  0  0
  7 22  1  0  0  0  0
  8 23  1  0  0  0  0
  8 24  1  0  0  0  0
  8 25  1  0  0  0  0
  9 10  2  0  0  0  0
  9 11  1  0  0  0  0
 11 26  1  0  0  0  0
 11 27  1  0  0  0  0
M  END
$$$$
