
 OpenBabel07222214433D

 23 24  0  0  0  0  0  0  0  0999 V2000
    0.9732    0.0854    0.0745 O   0  0  0  0  0  0  0  0  0  0  0  0
    0.2513    1.2574    0.0245 C   0  0  0  0  0  0  0  0  0  0  0  0
   -0.6673    1.5147    1.0451 C   0  0  0  0  0  0  0  0  0  0  0  0
   -1.4546    2.6683    0.9914 C   0  0  0  0  0  0  0  0  0  0  0  0
   -1.2869    3.5842   -0.0476 C   0  0  0  0  0  0  0  0  0  0  0  0
   -0.3637    3.3288   -1.0618 C   0  0  0  0  0  0  0  0  0  0  0  0
    0.3726    2.1455   -1.0467 C   0  0  0  0  0  0  0  0  0  0  0  0
    2.3538    0.1560    0.0964 C   0  0  0  0  0  0  0  0  0  0  0  0
    3.0334   -1.0696    0.1077 C   0  0  0  0  0  0  0  0  0  0  0  0
    4.4260   -1.0959    0.2421 C   0  0  0  0  0  0  0  0  0  0  0  0
    5.1494    0.0930    0.2963 C   0  0  0  0  0  0  0  0  0  0  0  0
    4.4822    1.3137    0.2400 C   0  0  0  0  0  0  0  0  0  0  0  0
    3.0917    1.3389    0.1664 C   0  0  0  0  0  0  0  0  0  0  0  0
   -0.7678    0.8282    1.8804 H   0  0  0  0  0  0  0  0  0  0  0  0
   -2.2010    2.8550    1.7605 H   0  0  0  0  0  0  0  0  0  0  0  0
   -1.8786    4.4959   -0.0728 H   0  0  0  0  0  0  0  0  0  0  0  0
   -0.2212    4.0446   -1.8657 H   0  0  0  0  0  0  0  0  0  0  0  0
    1.0756    1.9377   -1.8495 H   0  0  0  0  0  0  0  0  0  0  0  0
    2.4842   -2.0038    0.0344 H   0  0  0  0  0  0  0  0  0  0  0  0
    4.9482   -2.0477    0.3190 H   0  0  0  0  0  0  0  0  0  0  0  0
    6.2313    0.0772    0.3921 H   0  0  0  0  0  0  0  0  0  0  0  0
    5.0317    2.2482    0.2787 H   0  0  0  0  0  0  0  0  0  0  0  0
    2.6100    2.3119    0.1757 H   0  0  0  0  0  0  0  0  0  0  0  0
  1  2  1  0  0  0  0
  1  8  1  0  0  0  0
  2  3  1  0  0  0  0
  2  7  2  0  0  0  0
  3  4  2  0  0  0  0
  3 14  1  0  0  0  0
  4  5  1  0  0  0  0
  4 15  1  0  0  0  0
  5  6  2  0  0  0  0
  5 16  1  0  0  0  0
  6  7  1  0  0  0  0
  6 17  1  0  0  0  0
  7 18  1  0  0  0  0
  8  9  1  0  0  0  0
  8 13  2  0  0  0  0
  9 10  2  0  0  0  0
  9 19  1  0  0  0  0
 10 11  1  0  0  0  0
 10 20  1  0  0  0  0
 11 12  2  0  0  0  0
 11 21  1  0  0  0  0
 12 13  1  0  0  0  0
 12 22  1  0  0  0  0
 13 23  1  0  0  0  0
M  END
$$$$
