
 OpenBabel07122215493D

 25 25  0  0  0  0  0  0  0  0999 V2000
    1.1250   -0.0526    0.0548 C   0  0  0  0  0  0  0  0  0  0  0  0
    2.4666   -0.0734    0.0717 C   0  0  0  0  0  0  0  0  0  0  0  0
    3.2578   -1.0726    0.8623 C   0  0  0  0  0  0  0  0  0  0  0  0
    4.6671   -0.8420    0.6774 O   0  0  0  0  0  0  0  0  0  0  0  0
    5.4216   -1.7262    1.3961 C   0  0  0  0  0  0  0  0  0  0  0  0
    4.9263   -2.5958    2.1115 O   0  0  0  0  0  0  0  0  0  0  0  0
    6.9237   -1.5125    1.1892 C   0  0  0  0  0  0  0  0  0  0  0  0
    7.7297   -2.5312    1.9797 C   0  0  0  0  0  0  0  0  0  0  0  0
    7.5434   -3.8979    1.7174 C   0  0  0  0  0  0  0  0  0  0  0  0
    7.9833   -4.8563    2.6271 C   0  0  0  0  0  0  0  0  0  0  0  0
    8.7324   -4.4719    3.7351 C   0  0  0  0  0  0  0  0  0  0  0  0
    9.0184   -3.1236    3.9475 C   0  0  0  0  0  0  0  0  0  0  0  0
    8.5141   -2.1522    3.0777 C   0  0  0  0  0  0  0  0  0  0  0  0
    0.5808    0.6852   -0.5277 H   0  0  0  0  0  0  0  0  0  0  0  0
    0.5348   -0.7689    0.6208 H   0  0  0  0  0  0  0  0  0  0  0  0
    3.0146    0.6626   -0.5091 H   0  0  0  0  0  0  0  0  0  0  0  0
    3.0082   -2.0830    0.5137 H   0  0  0  0  0  0  0  0  0  0  0  0
    3.0072   -0.9671    1.9256 H   0  0  0  0  0  0  0  0  0  0  0  0
    7.1816   -0.4986    1.5171 H   0  0  0  0  0  0  0  0  0  0  0  0
    7.1724   -1.6073    0.1260 H   0  0  0  0  0  0  0  0  0  0  0  0
    6.9617   -4.2165    0.8551 H   0  0  0  0  0  0  0  0  0  0  0  0
    7.6946   -5.8955    2.4948 H   0  0  0  0  0  0  0  0  0  0  0  0
    9.0807   -5.2236    4.4380 H   0  0  0  0  0  0  0  0  0  0  0  0
    9.5912   -2.8272    4.8227 H   0  0  0  0  0  0  0  0  0  0  0  0
    8.7000   -1.1033    3.2957 H   0  0  0  0  0  0  0  0  0  0  0  0
  1  2  2  0  0  0  0
  1 14  1  0  0  0  0
  1 15  1  0  0  0  0
  2  3  1  0  0  0  0
  2 16  1  0  0  0  0
  3  4  1  0  0  0  0
  3 17  1  0  0  0  0
  3 18  1  0  0  0  0
  4  5  1  0  0  0  0
  5  6  2  0  0  0  0
  5  7  1  0  0  0  0
  7  8  1  0  0  0  0
  7 19  1  0  0  0  0
  7 20  1  0  0  0  0
  8  9  1  0  0  0  0
  8 13  2  0  0  0  0
  9 10  2  0  0  0  0
  9 21  1  0  0  0  0
 10 11  1  0  0  0  0
 10 22  1  0  0  0  0
 11 12  2  0  0  0  0
 11 23  1  0  0  0  0
 12 13  1  0  0  0  0
 12 24  1  0  0  0  0
 13 25  1  0  0  0  0
M  END
$$$$
