
 OpenBabel07202215583D

 25 25  0  0  1  0  0  0  0  0999 V2000
    1.8999   -1.4984    0.0179 C   0  0  0  0  0  0  0  0  0  0  0  0
    0.5737   -0.8177    0.0839 C   0  0  0  0  0  0  0  0  0  0  0  0
   -0.6081   -1.4606    0.1204 C   0  0  0  0  0  0  0  0  0  0  0  0
   -1.9521   -0.7707    0.1088 C   0  0  0  0  0  0  0  0  0  0  0  0
   -1.8513    0.6906   -0.3909 C   0  0  1  0  0  0  0  0  0  0  0  0
   -0.7259    1.3719    0.4016 C   0  0  0  0  0  0  0  0  0  0  0  0
    0.5854    0.6811    0.1022 C   0  0  0  0  0  0  0  0  0  0  0  0
    1.6237    1.3093   -0.0713 O   0  0  0  0  0  0  0  0  0  0  0  0
   -1.6374    0.8101   -1.9100 C   0  0  0  0  0  0  0  0  0  0  0  0
   -1.5082   -0.2425   -2.7399 C   0  0  0  0  0  0  0  0  0  0  0  0
   -1.5186    2.1930   -2.4945 C   0  0  0  0  0  0  0  0  0  0  0  0
    1.7909   -2.5868   -0.0218 H   0  0  0  0  0  0  0  0  0  0  0  0
    2.4903   -1.2526    0.9061 H   0  0  0  0  0  0  0  0  0  0  0  0
    2.4570   -1.1866   -0.8716 H   0  0  0  0  0  0  0  0  0  0  0  0
   -0.6273   -2.5472    0.0874 H   0  0  0  0  0  0  0  0  0  0  0  0
   -2.3677   -0.8039    1.1227 H   0  0  0  0  0  0  0  0  0  0  0  0
   -2.6559   -1.3331   -0.5175 H   0  0  0  0  0  0  0  0  0  0  0  0
   -2.7997    1.1919   -0.1518 H   0  0  0  0  0  0  0  0  0  0  0  0
   -0.9027    1.3026    1.4829 H   0  0  0  0  0  0  0  0  0  0  0  0
   -0.6383    2.4358    0.1602 H   0  0  0  0  0  0  0  0  0  0  0  0
   -1.5561   -1.2723   -2.4037 H   0  0  0  0  0  0  0  0  0  0  0  0
   -1.3142   -0.1159   -3.7992 H   0  0  0  0  0  0  0  0  0  0  0  0
   -1.6625    2.9773   -1.7466 H   0  0  0  0  0  0  0  0  0  0  0  0
   -2.2735    2.3436   -3.2726 H   0  0  0  0  0  0  0  0  0  0  0  0
   -0.5239    2.3299   -2.9339 H   0  0  0  0  0  0  0  0  0  0  0  0
  1  2  1  0  0  0  0
  1 12  1  0  0  0  0
  1 13  1  0  0  0  0
  1 14  1  0  0  0  0
  2  3  2  0  0  0  0
  2  7  1  0  0  0  0
  3  4  1  0  0  0  0
  3 15  1  0  0  0  0
  4  5  1  0  0  0  0
  4 16  1  0  0  0  0
  4 17  1  0  0  0  0
  5  6  1  0  0  0  0
  5  9  1  0  0  0  0
  5 18  1  1  0  0  0
  6  7  1  0  0  0  0
  6 19  1  0  0  0  0
  6 20  1  0  0  0  0
  7  8  2  0  0  0  0
  9 10  2  0  0  0  0
  9 11  1  0  0  0  0
 10 21  1  0  0  0  0
 10 22  1  0  0  0  0
 11 23  1  0  0  0  0
 11 24  1  0  0  0  0
 11 25  1  0  0  0  0
M  END
$$$$
