
 OpenBabel07222214443D

 26 27  0  0  0  0  0  0  0  0999 V2000
    1.0779    0.2772   -0.3436 C   0  0  0  0  0  0  0  0  0  0  0  0
    2.4544    0.0325   -0.0652 O   0  0  0  0  0  0  0  0  0  0  0  0
    2.9238    0.1769    1.2207 C   0  0  0  0  0  0  0  0  0  0  0  0
    4.0432    1.0430    1.2914 C   0  0  0  0  0  0  0  0  0  0  0  0
    4.7992    1.2212    2.4776 C   0  0  0  0  0  0  0  0  0  0  0  0
    5.9300    2.0656    2.5444 C   0  0  0  0  0  0  0  0  0  0  0  0
    6.6606    2.1979    3.7324 C   0  0  0  0  0  0  0  0  0  0  0  0
    6.2788    1.4933    4.8664 C   0  0  0  0  0  0  0  0  0  0  0  0
    5.1637    0.6559    4.8173 C   0  0  0  0  0  0  0  0  0  0  0  0
    4.4210    0.5203    3.6271 C   0  0  0  0  0  0  0  0  0  0  0  0
    3.3104   -0.3339    3.5628 C   0  0  0  0  0  0  0  0  0  0  0  0
    2.5778   -0.5451    2.3737 C   0  0  0  0  0  0  0  0  0  0  0  0
    1.6670   -1.5460    2.5964 O   0  0  0  0  0  0  0  0  0  0  0  0
    0.7784   -1.8749    1.5638 C   0  0  0  0  0  0  0  0  0  0  0  0
    0.9640    0.6410   -1.3688 H   0  0  0  0  0  0  0  0  0  0  0  0
    0.6036    0.9768    0.3509 H   0  0  0  0  0  0  0  0  0  0  0  0
    0.5332   -0.6648   -0.3980 H   0  0  0  0  0  0  0  0  0  0  0  0
    4.3535    1.5674    0.3905 H   0  0  0  0  0  0  0  0  0  0  0  0
    6.2523    2.6234    1.6706 H   0  0  0  0  0  0  0  0  0  0  0  0
    7.5305    2.8504    3.7676 H   0  0  0  0  0  0  0  0  0  0  0  0
    6.8454    1.5884    5.7901 H   0  0  0  0  0  0  0  0  0  0  0  0
    4.8838    0.1011    5.7082 H   0  0  0  0  0  0  0  0  0  0  0  0
    3.0166   -0.8903    4.4505 H   0  0  0  0  0  0  0  0  0  0  0  0
    0.1616   -2.7367    1.8261 H   0  0  0  0  0  0  0  0  0  0  0  0
    1.3367   -2.1562    0.6663 H   0  0  0  0  0  0  0  0  0  0  0  0
    0.0767   -1.0448    1.4556 H   0  0  0  0  0  0  0  0  0  0  0  0
  1  2  1  0  0  0  0
  1 15  1  0  0  0  0
  1 16  1  0  0  0  0
  1 17  1  0  0  0  0
  2  3  1  0  0  0  0
  3  4  2  0  0  0  0
  3 12  1  0  0  0  0
  4  5  1  0  0  0  0
  4 18  1  0  0  0  0
  5  6  2  0  0  0  0
  5 10  1  0  0  0  0
  6  7  1  0  0  0  0
  6 19  1  0  0  0  0
  7  8  2  0  0  0  0
  7 20  1  0  0  0  0
  8  9  1  0  0  0  0
  8 21  1  0  0  0  0
  9 10  2  0  0  0  0
  9 22  1  0  0  0  0
 10 11  1  0  0  0  0
 11 12  2  0  0  0  0
 11 23  1  0  0  0  0
 12 13  1  0  0  0  0
 13 14  1  0  0  0  0
 14 24  1  0  0  0  0
 14 25  1  0  0  0  0
 14 26  1  0  0  0  0
M  END
$$$$
