
 OpenBabel07122215493D

 38 38  0  0  1  0  0  0  0  0999 V2000
    2.3316    4.3661   -0.4046 C   0  0  0  0  0  0  0  0  0  0  0  0
    3.2945    4.3695   -1.5392 C   0  0  0  0  0  0  0  0  0  0  0  0
    4.4893    4.9646   -1.5472 C   0  0  0  0  0  0  0  0  0  0  0  0
    5.1973    4.7956   -2.8438 C   0  0  0  0  0  0  0  0  0  0  0  0
    4.4219    3.6331   -3.4777 C   0  0  1  0  0  0  0  0  0  0  0  0
    2.9778    3.6987   -2.8587 C   0  0  0  0  0  0  0  0  0  0  0  0
    1.9382    4.5420   -3.6445 C   0  0  0  0  0  0  0  0  0  0  0  0
    2.4228    2.2770   -2.7059 C   0  0  0  0  0  0  0  0  0  0  0  0
    4.4197    3.7664   -4.9779 C   0  0  0  0  0  0  0  0  0  0  0  0
    5.0197    2.6531   -5.8083 C   0  0  0  0  0  0  0  0  0  0  0  0
    4.7731    3.0595   -7.2819 C   0  0  2  0  0  0  0  0  0  0  0  0
    3.2872    3.3568   -7.5717 C   0  0  0  0  0  0  0  0  0  0  0  0
    5.2664    1.9985   -8.2517 C   0  0  0  0  0  0  0  0  0  0  0  0
    6.6546    1.7636   -8.0799 O   0  0  0  0  0  0  0  0  0  0  0  0
    2.7334    4.9158    0.4511 H   0  0  0  0  0  0  0  0  0  0  0  0
    2.1331    3.3409   -0.0807 H   0  0  0  0  0  0  0  0  0  0  0  0
    1.3866    4.8331   -0.6953 H   0  0  0  0  0  0  0  0  0  0  0  0
    4.9077    5.5364   -0.7282 H   0  0  0  0  0  0  0  0  0  0  0  0
    6.2512    4.5316   -2.7165 H   0  0  0  0  0  0  0  0  0  0  0  0
    5.1381    5.7240   -3.4237 H   0  0  0  0  0  0  0  0  0  0  0  0
    4.9116    2.6924   -3.1851 H   0  0  0  0  0  0  0  0  0  0  0  0
    2.3189    5.5405   -3.8883 H   0  0  0  0  0  0  0  0  0  0  0  0
    1.0053    4.6580   -3.0847 H   0  0  0  0  0  0  0  0  0  0  0  0
    1.6340    4.0631   -4.5852 H   0  0  0  0  0  0  0  0  0  0  0  0
    3.0934    1.6452   -2.1141 H   0  0  0  0  0  0  0  0  0  0  0  0
    2.2885    1.8007   -3.6843 H   0  0  0  0  0  0  0  0  0  0  0  0
    1.4469    2.2868   -2.2084 H   0  0  0  0  0  0  0  0  0  0  0  0
    3.3832    3.7485   -5.2588 H   0  0  0  0  0  0  0  0  0  0  0  0
    4.8230    4.7308   -5.3064 H   0  0  0  0  0  0  0  0  0  0  0  0
    4.5276    1.6981   -5.5810 H   0  0  0  0  0  0  0  0  0  0  0  0
    6.0871    2.5314   -5.5882 H   0  0  0  0  0  0  0  0  0  0  0  0
    5.3466    3.9814   -7.4538 H   0  0  0  0  0  0  0  0  0  0  0  0
    2.6634    2.4994   -7.2937 H   0  0  0  0  0  0  0  0  0  0  0  0
    3.1245    3.5962   -8.6232 H   0  0  0  0  0  0  0  0  0  0  0  0
    2.9141    4.2327   -7.0275 H   0  0  0  0  0  0  0  0  0  0  0  0
    5.0977    2.3308   -9.2809 H   0  0  0  0  0  0  0  0  0  0  0  0
    4.7299    1.0571   -8.1005 H   0  0  0  0  0  0  0  0  0  0  0  0
    7.1089    2.6179   -8.1782 H   0  0  0  0  0  0  0  0  0  0  0  0
  1  2  1  0  0  0  0
  1 15  1  0  0  0  0
  1 16  1  0  0  0  0
  1 17  1  0  0  0  0
  2  3  2  0  0  0  0
  2  6  1  0  0  0  0
  3  4  1  0  0  0  0
  3 18  1  0  0  0  0
  4  5  1  0  0  0  0
  4 19  1  0  0  0  0
  4 20  1  0  0  0  0
  5  6  1  0  0  0  0
  5  9  1  0  0  0  0
  5 21  1  1  0  0  0
  6  7  1  0  0  0  0
  6  8  1  0  0  0  0
  7 22  1  0  0  0  0
  7 23  1  0  0  0  0
  7 24  1  0  0  0  0
  8 25  1  0  0  0  0
  8 26  1  0  0  0  0
  8 27  1  0  0  0  0
  9 10  1  0  0  0  0
  9 28  1  0  0  0  0
  9 29  1  0  0  0  0
 10 30  1  0  0  0  0
 10 31  1  0  0  0  0
 11 13  1  0  0  0  0
 11 12  1  0  0  0  0
 11 10  1  0  0  0  0
 11 32  1  6  0  0  0
 12 33  1  0  0  0  0
 12 34  1  0  0  0  0
 12 35  1  0  0  0  0
 13 14  1  0  0  0  0
 13 36  1  0  0  0  0
 13 37  1  0  0  0  0
 14 38  1  0  0  0  0
M  END
$$$$
