
 OpenBabel07202215583D

 40 39  0  0  0  0  0  0  0  0999 V2000
    0.9783   -0.0200    0.0815 C   0  0  0  0  0  0  0  0  0  0  0  0
    2.5094   -0.0532    0.1284 C   0  0  0  0  0  0  0  0  0  0  0  0
    3.0128    1.2019    0.8330 C   0  0  0  0  0  0  0  0  0  0  0  0
    2.9835   -1.3176    0.8349 C   0  0  0  0  0  0  0  0  0  0  0  0
    2.2289   -2.1722    1.2920 O   0  0  0  0  0  0  0  0  0  0  0  0
    4.3468   -1.4040    0.8699 O   0  0  0  0  0  0  0  0  0  0  0  0
    4.8051   -2.5899    1.5357 C   0  0  0  0  0  0  0  0  0  0  0  0
    6.3105   -2.6290    1.5591 C   0  0  0  0  0  0  0  0  0  0  0  0
    7.0223   -3.6298    2.1217 C   0  0  0  0  0  0  0  0  0  0  0  0
    8.5333   -3.6216    2.1173 C   0  0  0  0  0  0  0  0  0  0  0  0
    6.3107   -4.8015    2.7796 C   0  0  0  0  0  0  0  0  0  0  0  0
    7.2472   -5.8471    3.3667 C   0  0  0  0  0  0  0  0  0  0  0  0
    6.5379   -6.9951    4.0113 C   0  0  0  0  0  0  0  0  0  0  0  0
    7.2051   -8.0136    4.5832 C   0  0  0  0  0  0  0  0  0  0  0  0
    8.7108   -8.0792    4.6200 C   0  0  0  0  0  0  0  0  0  0  0  0
    6.4686   -9.1532    5.2230 C   0  0  0  0  0  0  0  0  0  0  0  0
    0.6146    0.8776   -0.4300 H   0  0  0  0  0  0  0  0  0  0  0  0
    0.5550   -0.0250    1.0931 H   0  0  0  0  0  0  0  0  0  0  0  0
    0.5814   -0.8936   -0.4464 H   0  0  0  0  0  0  0  0  0  0  0  0
    2.8837   -0.0791   -0.9024 H   0  0  0  0  0  0  0  0  0  0  0  0
    2.6662    1.2332    1.8718 H   0  0  0  0  0  0  0  0  0  0  0  0
    2.6481    2.1043    0.3286 H   0  0  0  0  0  0  0  0  0  0  0  0
    4.1060    1.2438    0.8438 H   0  0  0  0  0  0  0  0  0  0  0  0
    4.4318   -3.4701    0.9979 H   0  0  0  0  0  0  0  0  0  0  0  0
    4.4313   -2.5870    2.5671 H   0  0  0  0  0  0  0  0  0  0  0  0
    6.8337   -1.7985    1.0932 H   0  0  0  0  0  0  0  0  0  0  0  0
    8.9455   -2.7388    1.6216 H   0  0  0  0  0  0  0  0  0  0  0  0
    8.9253   -4.4997    1.5914 H   0  0  0  0  0  0  0  0  0  0  0  0
    8.9252   -3.6297    3.1409 H   0  0  0  0  0  0  0  0  0  0  0  0
    5.6648   -5.2913    2.0390 H   0  0  0  0  0  0  0  0  0  0  0  0
    5.6648   -4.4241    3.5832 H   0  0  0  0  0  0  0  0  0  0  0  0
    7.8813   -5.3690    4.1233 H   0  0  0  0  0  0  0  0  0  0  0  0
    7.8814   -6.2442    2.5646 H   0  0  0  0  0  0  0  0  0  0  0  0
    5.4496   -6.9879    4.0072 H   0  0  0  0  0  0  0  0  0  0  0  0
    9.1923   -7.2216    4.1385 H   0  0  0  0  0  0  0  0  0  0  0  0
    9.0677   -8.9693    4.0951 H   0  0  0  0  0  0  0  0  0  0  0  0
    9.0677   -8.0945    5.6532 H   0  0  0  0  0  0  0  0  0  0  0  0
    5.3823   -9.0271    5.1522 H   0  0  0  0  0  0  0  0  0  0  0  0
    6.7251   -9.2239    6.2842 H   0  0  0  0  0  0  0  0  0  0  0  0
    6.7251  -10.0961    4.7309 H   0  0  0  0  0  0  0  0  0  0  0  0
  1  2  1  0  0  0  0
  1 17  1  0  0  0  0
  1 18  1  0  0  0  0
  1 19  1  0  0  0  0
  2  3  1  0  0  0  0
  2  4  1  0  0  0  0
  2 20  1  0  0  0  0
  3 21  1  0  0  0  0
  3 22  1  0  0  0  0
  3 23  1  0  0  0  0
  4  5  2  0  0  0  0
  4  6  1  0  0  0  0
  6  7  1  0  0  0  0
  7  8  1  0  0  0  0
  7 24  1  0  0  0  0
  7 25  1  0  0  0  0
  8  9  2  0  0  0  0
  8 26  1  0  0  0  0
  9 10  1  0  0  0  0
  9 11  1  0  0  0  0
 10 27  1  0  0  0  0
 10 28  1  0  0  0  0
 10 29  1  0  0  0  0
 11 12  1  0  0  0  0
 11 30  1  0  0  0  0
 11 31  1  0  0  0  0
 12 13  1  0  0  0  0
 12 32  1  0  0  0  0
 12 33  1  0  0  0  0
 13 14  2  0  0  0  0
 13 34  1  0  0  0  0
 14 15  1  0  0  0  0
 14 16  1  0  0  0  0
 15 35  1  0  0  0  0
 15 36  1  0  0  0  0
 15 37  1  0  0  0  0
 16 38  1  0  0  0  0
 16 39  1  0  0  0  0
 16 40  1  0  0  0  0
M  END
$$$$
