
 OpenBabel07222214433D

 25 24  0  0  0  0  0  0  0  0999 V2000
    1.0107    0.1050    0.0168 C   0  0  0  0  0  0  0  0  0  0  0  0
    2.5271    0.0915    0.0236 C   0  0  0  0  0  0  0  0  0  0  0  0
    3.0478   -1.1867    0.6743 C   0  0  0  0  0  0  0  0  0  0  0  0
    4.5672   -1.1973    0.6797 C   0  0  0  0  0  0  0  0  0  0  0  0
    5.1237   -2.4632    1.3241 C   0  0  0  0  0  0  0  0  0  0  0  0
    6.6384   -2.4263    1.3053 C   0  0  0  0  0  0  0  0  0  0  0  0
    7.2547   -1.4739    0.8205 O   0  0  0  0  0  0  0  0  0  0  0  0
    7.3615   -3.6123    1.9090 C   0  0  0  0  0  0  0  0  0  0  0  0
    8.8653   -3.4168    1.8095 C   0  0  0  0  0  0  0  0  0  0  0  0
    0.6402    1.0217   -0.4499 H   0  0  0  0  0  0  0  0  0  0  0  0
    0.6196    0.0549    1.0378 H   0  0  0  0  0  0  0  0  0  0  0  0
    0.6196   -0.7501   -0.5436 H   0  0  0  0  0  0  0  0  0  0  0  0
    2.8991    0.9681    0.5675 H   0  0  0  0  0  0  0  0  0  0  0  0
    2.8991    0.1675   -1.0052 H   0  0  0  0  0  0  0  0  0  0  0  0
    2.6743   -2.0608    0.1278 H   0  0  0  0  0  0  0  0  0  0  0  0
    2.6743   -1.2591    1.7026 H   0  0  0  0  0  0  0  0  0  0  0  0
    4.9387   -0.3163    1.2192 H   0  0  0  0  0  0  0  0  0  0  0  0
    4.9387   -1.1151   -0.3501 H   0  0  0  0  0  0  0  0  0  0  0  0
    4.7851   -3.3487    0.7750 H   0  0  0  0  0  0  0  0  0  0  0  0
    4.7851   -2.5403    2.3631 H   0  0  0  0  0  0  0  0  0  0  0  0
    7.0659   -4.5185    1.3704 H   0  0  0  0  0  0  0  0  0  0  0  0
    7.0659   -3.7100    2.9587 H   0  0  0  0  0  0  0  0  0  0  0  0
    9.1717   -3.3087    0.7628 H   0  0  0  0  0  0  0  0  0  0  0  0
    9.4029   -4.2642    2.2409 H   0  0  0  0  0  0  0  0  0  0  0  0
    9.1717   -2.5068    2.3380 H   0  0  0  0  0  0  0  0  0  0  0  0
  1  2  1  0  0  0  0
  1 10  1  0  0  0  0
  1 11  1  0  0  0  0
  1 12  1  0  0  0  0
  2  3  1  0  0  0  0
  2 13  1  0  0  0  0
  2 14  1  0  0  0  0
  3  4  1  0  0  0  0
  3 15  1  0  0  0  0
  3 16  1  0  0  0  0
  4  5  1  0  0  0  0
  4 17  1  0  0  0  0
  4 18  1  0  0  0  0
  5  6  1  0  0  0  0
  5 19  1  0  0  0  0
  5 20  1  0  0  0  0
  6  7  2  0  0  0  0
  6  8  1  0  0  0  0
  8  9  1  0  0  0  0
  8 21  1  0  0  0  0
  8 22  1  0  0  0  0
  9 23  1  0  0  0  0
  9 24  1  0  0  0  0
  9 25  1  0  0  0  0
M  END
$$$$
