
 OpenBabel07202215583D

 28 27  0  0  0  0  0  0  0  0999 V2000
    0.9274    0.0099    0.1043 C   0  0  0  0  0  0  0  0  0  0  0  0
    2.4433    0.0121    0.0959 C   0  0  0  0  0  0  0  0  0  0  0  0
    2.9593    0.3851   -1.2859 C   0  0  0  0  0  0  0  0  0  0  0  0
    4.4765    0.3910   -1.3079 C   0  0  0  0  0  0  0  0  0  0  0  0
    4.9742    0.7662   -2.6979 C   0  0  0  0  0  0  0  0  0  0  0  0
    6.4878    0.7655   -2.6954 C   0  0  0  0  0  0  0  0  0  0  0  0
    7.0714    1.1301   -4.0466 C   0  0  0  0  0  0  0  0  0  0  0  0
    8.5878    1.1363   -4.0693 C   0  0  0  0  0  0  0  0  0  0  0  0
    9.3821    0.8014   -2.8285 C   0  0  0  0  0  0  0  0  0  0  0  0
    9.1810    1.4191   -5.1173 O   0  0  0  0  0  0  0  0  0  0  0  0
    0.5538   -0.2577    1.0958 H   0  0  0  0  0  0  0  0  0  0  0  0
    0.5386   -0.7135   -0.6196 H   0  0  0  0  0  0  0  0  0  0  0  0
    0.5386    0.9992   -0.1574 H   0  0  0  0  0  0  0  0  0  0  0  0
    2.8158   -0.9791    0.3798 H   0  0  0  0  0  0  0  0  0  0  0  0
    2.8158    0.7259    0.8400 H   0  0  0  0  0  0  0  0  0  0  0  0
    2.5857    1.3764   -1.5699 H   0  0  0  0  0  0  0  0  0  0  0  0
    2.5857   -0.3287   -2.0301 H   0  0  0  0  0  0  0  0  0  0  0  0
    4.8599   -0.5984   -1.0270 H   0  0  0  0  0  0  0  0  0  0  0  0
    4.8599    1.1047   -0.5673 H   0  0  0  0  0  0  0  0  0  0  0  0
    4.6008    1.7583   -2.9768 H   0  0  0  0  0  0  0  0  0  0  0  0
    4.6008    0.0491   -3.4381 H   0  0  0  0  0  0  0  0  0  0  0  0
    6.8370   -0.2326   -2.4021 H   0  0  0  0  0  0  0  0  0  0  0  0
    6.8370    1.4804   -1.9398 H   0  0  0  0  0  0  0  0  0  0  0  0
    6.7269    2.1290   -4.3402 H   0  0  0  0  0  0  0  0  0  0  0  0
    6.7269    0.4147   -4.8029 H   0  0  0  0  0  0  0  0  0  0  0  0
    8.7705    0.5666   -1.9586 H   0  0  0  0  0  0  0  0  0  0  0  0
   10.0006    1.6607   -2.5609 H   0  0  0  0  0  0  0  0  0  0  0  0
   10.0006   -0.0758   -3.0295 H   0  0  0  0  0  0  0  0  0  0  0  0
  1  2  1  0  0  0  0
  1 11  1  0  0  0  0
  1 12  1  0  0  0  0
  1 13  1  0  0  0  0
  2  3  1  0  0  0  0
  2 14  1  0  0  0  0
  2 15  1  0  0  0  0
  3  4  1  0  0  0  0
  3 16  1  0  0  0  0
  3 17  1  0  0  0  0
  4  5  1  0  0  0  0
  4 18  1  0  0  0  0
  4 19  1  0  0  0  0
  5  6  1  0  0  0  0
  5 20  1  0  0  0  0
  5 21  1  0  0  0  0
  6  7  1  0  0  0  0
  6 22  1  0  0  0  0
  6 23  1  0  0  0  0
  7  8  1  0  0  0  0
  7 24  1  0  0  0  0
  7 25  1  0  0  0  0
  8  9  1  0  0  0  0
  8 10  2  0  0  0  0
  9 26  1  0  0  0  0
  9 27  1  0  0  0  0
  9 28  1  0  0  0  0
M  END
$$$$
