
 OpenBabel07222214433D

 14 13  0  0  0  0  0  0  0  0999 V2000
    0.9096   -0.0851   -0.0583 C   0  0  0  0  0  0  0  0  0  0  0  0
    2.4241   -0.0451    0.0369 C   0  0  0  0  0  0  0  0  0  0  0  0
    2.8983    0.9492   -0.8648 O   0  0  0  0  0  0  0  0  0  0  0  0
    2.9706    0.1654    1.4621 C   0  0  0  0  0  0  0  0  0  0  0  0
    2.0182    0.3566    2.6178 C   0  0  0  0  0  0  0  0  0  0  0  0
    4.1889    0.2214    1.6734 O   0  0  0  0  0  0  0  0  0  0  0  0
    0.5804   -0.2447   -1.0887 H   0  0  0  0  0  0  0  0  0  0  0  0
    0.4808    0.8719    0.2611 H   0  0  0  0  0  0  0  0  0  0  0  0
    0.4973   -0.8853    0.5646 H   0  0  0  0  0  0  0  0  0  0  0  0
    2.8184   -1.0080   -0.3097 H   0  0  0  0  0  0  0  0  0  0  0  0
    2.6447    1.8206   -0.5164 H   0  0  0  0  0  0  0  0  0  0  0  0
    0.9687    0.3104    2.3330 H   0  0  0  0  0  0  0  0  0  0  0  0
    2.1910    1.3431    3.0552 H   0  0  0  0  0  0  0  0  0  0  0  0
    2.1919   -0.4272    3.3584 H   0  0  0  0  0  0  0  0  0  0  0  0
  1  2  1  0  0  0  0
  1  7  1  0  0  0  0
  1  8  1  0  0  0  0
  1  9  1  0  0  0  0
  2  3  1  0  0  0  0
  2  4  1  0  0  0  0
  2 10  1  0  0  0  0
  3 11  1  0  0  0  0
  4  5  1  0  0  0  0
  4  6  2  0  0  0  0
  5 12  1  0  0  0  0
  5 13  1  0  0  0  0
  5 14  1  0  0  0  0
M  END
$$$$
