
 OpenBabel07202215583D

 14 13  0  0  0  0  0  0  0  0999 V2000
    0.9137   -0.0664   -0.0319 C   0  0  0  0  0  0  0  0  0  0  0  0
    2.4306   -0.0758   -0.0155 C   0  0  0  0  0  0  0  0  0  0  0  0
    3.0197    0.6221   -1.2345 C   0  0  0  0  0  0  0  0  0  0  0  0
    4.5314    0.6616   -1.3034 C   0  0  0  0  0  0  0  0  0  0  0  0
    5.2111    0.0839   -0.2945 O   0  0  0  0  0  0  0  0  0  0  0  0
    5.1219    1.1952   -2.2356 O   0  0  0  0  0  0  0  0  0  0  0  0
    0.5296   -0.5756    0.8575 H   0  0  0  0  0  0  0  0  0  0  0  0
    0.5288   -0.5840   -0.9157 H   0  0  0  0  0  0  0  0  0  0  0  0
    0.5288    0.9579   -0.0330 H   0  0  0  0  0  0  0  0  0  0  0  0
    2.7775   -1.1152    0.0195 H   0  0  0  0  0  0  0  0  0  0  0  0
    2.7775    0.4203    0.8985 H   0  0  0  0  0  0  0  0  0  0  0  0
    2.6660    1.6602   -1.2619 H   0  0  0  0  0  0  0  0  0  0  0  0
    2.6660    0.1202   -2.1436 H   0  0  0  0  0  0  0  0  0  0  0  0
    4.6936   -0.3254    0.4205 H   0  0  0  0  0  0  0  0  0  0  0  0
  1  2  1  0  0  0  0
  1  7  1  0  0  0  0
  1  8  1  0  0  0  0
  1  9  1  0  0  0  0
  2  3  1  0  0  0  0
  2 10  1  0  0  0  0
  2 11  1  0  0  0  0
  3  4  1  0  0  0  0
  3 12  1  0  0  0  0
  3 13  1  0  0  0  0
  4  5  1  0  0  0  0
  4  6  2  0  0  0  0
  5 14  1  0  0  0  0
M  END
$$$$
