
 OpenBabel07222214443D

 31 31  0  0  0  0  0  0  0  0999 V2000
    1.0460    0.0720   -0.0206 C   0  0  0  0  0  0  0  0  0  0  0  0
    2.5767    0.0357   -0.0266 C   0  0  0  0  0  0  0  0  0  0  0  0
    3.0778   -1.2513    0.6324 C   0  0  0  0  0  0  0  0  0  0  0  0
    3.0918    0.2409   -1.4397 C   0  0  0  0  0  0  0  0  0  0  0  0
    3.4529   -0.8248   -2.2849 C   0  0  0  0  0  0  0  0  0  0  0  0
    3.8712   -0.6448   -3.6277 C   0  0  0  0  0  0  0  0  0  0  0  0
    3.9358    0.6826   -4.0832 C   0  0  0  0  0  0  0  0  0  0  0  0
    3.5933    1.7499   -3.2479 C   0  0  0  0  0  0  0  0  0  0  0  0
    3.1714    1.5376   -1.9445 C   0  0  0  0  0  0  0  0  0  0  0  0
    4.3089    1.1366   -5.3124 O   0  0  0  0  0  0  0  0  0  0  0  0
    4.2205   -1.9296   -4.3851 C   0  0  0  0  0  0  0  0  0  0  0  0
    3.0290   -2.9046   -4.4496 C   0  0  0  0  0  0  0  0  0  0  0  0
    4.7412   -1.7509   -5.8055 C   0  0  0  0  0  0  0  0  0  0  0  0
    0.6586   -0.0335    0.9981 H   0  0  0  0  0  0  0  0  0  0  0  0
    0.6275   -0.7370   -0.6299 H   0  0  0  0  0  0  0  0  0  0  0  0
    0.6666    1.0183   -0.4231 H   0  0  0  0  0  0  0  0  0  0  0  0
    2.9435    0.8698    0.5881 H   0  0  0  0  0  0  0  0  0  0  0  0
    2.6993   -2.1431    0.1212 H   0  0  0  0  0  0  0  0  0  0  0  0
    2.7440   -1.3120    1.6727 H   0  0  0  0  0  0  0  0  0  0  0  0
    4.1726   -1.2916    0.6228 H   0  0  0  0  0  0  0  0  0  0  0  0
    3.4035   -1.8392   -1.8938 H   0  0  0  0  0  0  0  0  0  0  0  0
    3.6535    2.7627   -3.6379 H   0  0  0  0  0  0  0  0  0  0  0  0
    2.9002    2.3951   -1.3345 H   0  0  0  0  0  0  0  0  0  0  0  0
    4.4888    0.4240   -5.9324 H   0  0  0  0  0  0  0  0  0  0  0  0
    5.0241   -2.4252   -3.8185 H   0  0  0  0  0  0  0  0  0  0  0  0
    2.1659   -2.4339   -4.9320 H   0  0  0  0  0  0  0  0  0  0  0  0
    2.7121   -3.2477   -3.4594 H   0  0  0  0  0  0  0  0  0  0  0  0
    3.2904   -3.8023   -5.0226 H   0  0  0  0  0  0  0  0  0  0  0  0
    3.9632   -1.3076   -6.4379 H   0  0  0  0  0  0  0  0  0  0  0  0
    5.0137   -2.7032   -6.2678 H   0  0  0  0  0  0  0  0  0  0  0  0
    5.6406   -1.1262   -5.8098 H   0  0  0  0  0  0  0  0  0  0  0  0
  1  2  1  0  0  0  0
  1 14  1  0  0  0  0
  1 15  1  0  0  0  0
  1 16  1  0  0  0  0
  2  3  1  0  0  0  0
  2  4  1  0  0  0  0
  2 17  1  0  0  0  0
  3 18  1  0  0  0  0
  3 19  1  0  0  0  0
  3 20  1  0  0  0  0
  4  5  2  0  0  0  0
  4  9  1  0  0  0  0
  5  6  1  0  0  0  0
  5 21  1  0  0  0  0
  6  7  2  0  0  0  0
  6 11  1  0  0  0  0
  7  8  1  0  0  0  0
  7 10  1  0  0  0  0
  8  9  2  0  0  0  0
  8 22  1  0  0  0  0
  9 23  1  0  0  0  0
 10 24  1  0  0  0  0
 11 12  1  0  0  0  0
 11 13  1  0  0  0  0
 11 25  1  0  0  0  0
 12 26  1  0  0  0  0
 12 27  1  0  0  0  0
 12 28  1  0  0  0  0
 13 29  1  0  0  0  0
 13 30  1  0  0  0  0
 13 31  1  0  0  0  0
M  END
$$$$
