
 OpenBabel07202215583D

 11 11  0  0  0  0  0  0  0  0999 V2000
    1.4347    0.0510   -0.0018 C   0  0  0  0  0  0  0  0  0  0  0  0
    0.6899    1.2256    0.0013 C   0  0  0  0  0  0  0  0  0  0  0  0
   -0.6924    1.1255    0.0022 C   0  0  0  0  0  0  0  0  0  0  0  0
   -1.3606   -0.0485    0.0048 N   0  0  0  0  0  0  0  0  0  0  0  0
   -0.6106   -1.1720    0.0045 C   0  0  0  0  0  0  0  0  0  0  0  0
    0.7753   -1.1737   -0.0009 C   0  0  0  0  0  0  0  0  0  0  0  0
    2.5202    0.0896   -0.0046 H   0  0  0  0  0  0  0  0  0  0  0  0
    1.1735    2.1958    0.0026 H   0  0  0  0  0  0  0  0  0  0  0  0
   -1.3177    2.0135    0.0008 H   0  0  0  0  0  0  0  0  0  0  0  0
   -1.1712   -2.1023    0.0093 H   0  0  0  0  0  0  0  0  0  0  0  0
    1.3267   -2.1069   -0.0037 H   0  0  0  0  0  0  0  0  0  0  0  0
  1  2  1  0  0  0  0
  1  6  2  0  0  0  0
  1  7  1  0  0  0  0
  2  3  2  0  0  0  0
  2  8  1  0  0  0  0
  3  4  1  0  0  0  0
  3  9  1  0  0  0  0
  4  5  2  0  0  0  0
  5  6  1  0  0  0  0
  5 10  1  0  0  0  0
  6 11  1  0  0  0  0
M  END
$$$$
