
 OpenBabel07202215583D

 21 20  0  0  0  0  0  0  0  0999 V2000
    0.8801    0.0148   -0.0052 C   0  0  0  0  0  0  0  0  0  0  0  0
    2.3986    0.0286   -0.0065 C   0  0  0  0  0  0  0  0  0  0  0  0
    2.9309    1.4521   -0.1478 C   0  0  0  0  0  0  0  0  0  0  0  0
    4.4567    1.4687   -0.1495 C   0  0  0  0  0  0  0  0  0  0  0  0
    4.9889    2.8906   -0.2916 C   0  0  0  0  0  0  0  0  0  0  0  0
    6.5101    2.9069   -0.2952 C   0  0  0  0  0  0  0  0  0  0  0  0
    6.9772    4.2426   -0.4205 O   0  0  0  0  0  0  0  0  0  0  0  0
    0.5092   -1.0092    0.0965 H   0  0  0  0  0  0  0  0  0  0  0  0
    0.4862    0.4307   -0.9381 H   0  0  0  0  0  0  0  0  0  0  0  0
    0.4861    0.6061    0.8275 H   0  0  0  0  0  0  0  0  0  0  0  0
    2.7672   -0.5918   -0.8319 H   0  0  0  0  0  0  0  0  0  0  0  0
    2.7671   -0.4174    0.9247 H   0  0  0  0  0  0  0  0  0  0  0  0
    2.5565    2.0698    0.6777 H   0  0  0  0  0  0  0  0  0  0  0  0
    2.5565    1.8953   -1.0787 H   0  0  0  0  0  0  0  0  0  0  0  0
    4.8309    0.8510   -0.9750 H   0  0  0  0  0  0  0  0  0  0  0  0
    4.8311    1.0261    0.7815 H   0  0  0  0  0  0  0  0  0  0  0  0
    4.6178    3.5211    0.5260 H   0  0  0  0  0  0  0  0  0  0  0  0
    4.6133    3.3463   -1.2163 H   0  0  0  0  0  0  0  0  0  0  0  0
    6.9106    2.3180   -1.1268 H   0  0  0  0  0  0  0  0  0  0  0  0
    6.9043    2.4946    0.6386 H   0  0  0  0  0  0  0  0  0  0  0  0
    6.6306    4.5953   -1.2563 H   0  0  0  0  0  0  0  0  0  0  0  0
  1  2  1  0  0  0  0
  1  8  1  0  0  0  0
  1  9  1  0  0  0  0
  1 10  1  0  0  0  0
  2  3  1  0  0  0  0
  2 11  1  0  0  0  0
  2 12  1  0  0  0  0
  3  4  1  0  0  0  0
  3 13  1  0  0  0  0
  3 14  1  0  0  0  0
  4  5  1  0  0  0  0
  4 15  1  0  0  0  0
  4 16  1  0  0  0  0
  5  6  1  0  0  0  0
  5 17  1  0  0  0  0
  5 18  1  0  0  0  0
  6  7  1  0  0  0  0
  6 19  1  0  0  0  0
  6 20  1  0  0  0  0
  7 21  1  0  0  0  0
M  END
$$$$
