
 OpenBabel07202215583D

 14 13  0  0  0  0  0  0  0  0999 V2000
    1.0241   -0.1163   -0.1121 C   0  0  0  0  0  0  0  0  0  0  0  0
    2.5386   -0.0227   -0.0684 C   0  0  0  0  0  0  0  0  0  0  0  0
    3.0128    0.1082   -1.4043 O   0  0  0  0  0  0  0  0  0  0  0  0
    3.0851    1.0905    0.8460 C   0  0  0  0  0  0  0  0  0  0  0  0
    2.1327    2.0085    1.5738 C   0  0  0  0  0  0  0  0  0  0  0  0
    4.3033    1.2740    0.9649 O   0  0  0  0  0  0  0  0  0  0  0  0
    0.6948   -0.9267   -0.7682 H   0  0  0  0  0  0  0  0  0  0  0  0
    0.5953    0.8072   -0.5182 H   0  0  0  0  0  0  0  0  0  0  0  0
    0.6118   -0.2907    0.8869 H   0  0  0  0  0  0  0  0  0  0  0  0
    2.9328   -0.9689    0.3216 H   0  0  0  0  0  0  0  0  0  0  0  0
    2.7592    0.9878   -1.7315 H   0  0  0  0  0  0  0  0  0  0  0  0
    1.0832    1.7829    1.3938 H   0  0  0  0  0  0  0  0  0  0  0  0
    2.3055    3.0331    1.2352 H   0  0  0  0  0  0  0  0  0  0  0  0
    2.3064    1.9252    2.6489 H   0  0  0  0  0  0  0  0  0  0  0  0
  1  2  1  0  0  0  0
  1  7  1  0  0  0  0
  1  8  1  0  0  0  0
  1  9  1  0  0  0  0
  2  3  1  0  0  0  0
  2  4  1  0  0  0  0
  2 10  1  0  0  0  0
  3 11  1  0  0  0  0
  4  5  1  0  0  0  0
  4  6  2  0  0  0  0
  5 12  1  0  0  0  0
  5 13  1  0  0  0  0
  5 14  1  0  0  0  0
M  END
$$$$
