
 OpenBabel07202215583D

 29 29  0  0  0  0  0  0  0  0999 V2000
    0.9092   -0.0294    0.1017 C   0  0  0  0  0  0  0  0  0  0  0  0
    2.4197   -0.0708    0.1168 C   0  0  0  0  0  0  0  0  0  0  0  0
    3.0191    0.9017   -0.8981 C   0  0  0  0  0  0  0  0  0  0  0  0
    4.5761    0.9342   -0.9161 C   0  0  0  0  0  0  0  0  0  0  0  0
    5.1226    1.3297    0.4741 C   0  0  0  0  0  0  0  0  0  0  0  0
    5.0973   -0.4796   -1.2231 C   0  0  0  0  0  0  0  0  0  0  0  0
    4.9562   -1.4619   -0.4860 O   0  0  0  0  0  0  0  0  0  0  0  0
    5.0290    2.0099   -1.9293 C   0  0  0  0  0  0  0  0  0  0  0  0
    5.9284    1.7764   -2.9819 C   0  0  0  0  0  0  0  0  0  0  0  0
    6.3457    2.8132   -3.8195 C   0  0  0  0  0  0  0  0  0  0  0  0
    5.8174    4.0897   -3.6739 C   0  0  0  0  0  0  0  0  0  0  0  0
    4.9133    4.3482   -2.6539 C   0  0  0  0  0  0  0  0  0  0  0  0
    4.5419    3.3269   -1.7831 C   0  0  0  0  0  0  0  0  0  0  0  0
    0.5240   -0.7563    0.8218 H   0  0  0  0  0  0  0  0  0  0  0  0
    0.5309   -0.2871   -0.8914 H   0  0  0  0  0  0  0  0  0  0  0  0
    0.5438    0.9639    0.3760 H   0  0  0  0  0  0  0  0  0  0  0  0
    2.7195   -1.0951   -0.1077 H   0  0  0  0  0  0  0  0  0  0  0  0
    2.7630    0.1691    1.1275 H   0  0  0  0  0  0  0  0  0  0  0  0
    2.6172    1.8942   -0.6539 H   0  0  0  0  0  0  0  0  0  0  0  0
    2.6423    0.6694   -1.9039 H   0  0  0  0  0  0  0  0  0  0  0  0
    4.8468    0.6068    1.2484 H   0  0  0  0  0  0  0  0  0  0  0  0
    4.7453    2.3064    0.7998 H   0  0  0  0  0  0  0  0  0  0  0  0
    6.2169    1.3792    0.4702 H   0  0  0  0  0  0  0  0  0  0  0  0
    5.6247   -0.6427   -2.1660 H   0  0  0  0  0  0  0  0  0  0  0  0
    6.3486    0.8024   -3.2038 H   0  0  0  0  0  0  0  0  0  0  0  0
    7.0903    2.6151   -4.5864 H   0  0  0  0  0  0  0  0  0  0  0  0
    6.1119    4.8811   -4.3552 H   0  0  0  0  0  0  0  0  0  0  0  0
    4.5019    5.3444   -2.5196 H   0  0  0  0  0  0  0  0  0  0  0  0
    3.8564    3.5823   -0.9772 H   0  0  0  0  0  0  0  0  0  0  0  0
  1  2  1  0  0  0  0
  1 14  1  0  0  0  0
  1 15  1  0  0  0  0
  1 16  1  0  0  0  0
  2  3  1  0  0  0  0
  2 17  1  0  0  0  0
  2 18  1  0  0  0  0
  3  4  1  0  0  0  0
  3 19  1  0  0  0  0
  3 20  1  0  0  0  0
  4  5  1  0  0  0  0
  4  6  1  0  0  0  0
  4  8  1  0  0  0  0
  5 21  1  0  0  0  0
  5 22  1  0  0  0  0
  5 23  1  0  0  0  0
  6  7  2  0  0  0  0
  6 24  1  0  0  0  0
  8  9  1  0  0  0  0
  8 13  2  0  0  0  0
  9 10  2  0  0  0  0
  9 25  1  0  0  0  0
 10 11  1  0  0  0  0
 10 26  1  0  0  0  0
 11 12  2  0  0  0  0
 11 27  1  0  0  0  0
 12 13  1  0  0  0  0
 12 28  1  0  0  0  0
 13 29  1  0  0  0  0
M  END
$$$$
