
 OpenBabel07202215583D

 17 16  0  0  0  0  0  0  0  0999 V2000
    1.0768   -0.0372   -0.0569 C   0  0  0  0  0  0  0  0  0  0  0  0
    2.5962   -0.0312   -0.0475 C   0  0  0  0  0  0  0  0  0  0  0  0
    3.1010    0.7350    1.1685 C   0  0  0  0  0  0  0  0  0  0  0  0
    4.6199    0.7776    1.2361 C   0  0  0  0  0  0  0  0  0  0  0  0
    5.1956    1.5240    2.4205 C   0  0  0  0  0  0  0  0  0  0  0  0
    4.3250    2.0720    3.2901 O   0  0  0  0  0  0  0  0  0  0  0  0
    6.4049    1.6309    2.5901 O   0  0  0  0  0  0  0  0  0  0  0  0
    0.7006   -0.5842   -0.9250 H   0  0  0  0  0  0  0  0  0  0  0  0
    0.6860    0.9851   -0.0969 H   0  0  0  0  0  0  0  0  0  0  0  0
    0.6860   -0.5145    0.8481 H   0  0  0  0  0  0  0  0  0  0  0  0
    2.9681    0.4337   -0.9676 H   0  0  0  0  0  0  0  0  0  0  0  0
    2.9681   -1.0619   -0.0251 H   0  0  0  0  0  0  0  0  0  0  0  0
    2.7084    0.2620    2.0772 H   0  0  0  0  0  0  0  0  0  0  0  0
    2.7084    1.7589    1.1339 H   0  0  0  0  0  0  0  0  0  0  0  0
    5.0083    1.2549    0.3283 H   0  0  0  0  0  0  0  0  0  0  0  0
    5.0083   -0.2473    1.2749 H   0  0  0  0  0  0  0  0  0  0  0  0
    3.3751    1.9594    3.1114 H   0  0  0  0  0  0  0  0  0  0  0  0
  1  2  1  0  0  0  0
  1  8  1  0  0  0  0
  1  9  1  0  0  0  0
  1 10  1  0  0  0  0
  2  3  1  0  0  0  0
  2 11  1  0  0  0  0
  2 12  1  0  0  0  0
  3  4  1  0  0  0  0
  3 13  1  0  0  0  0
  3 14  1  0  0  0  0
  4  5  1  0  0  0  0
  4 15  1  0  0  0  0
  4 16  1  0  0  0  0
  5  6  1  0  0  0  0
  5  7  2  0  0  0  0
  6 17  1  0  0  0  0
M  END
$$$$
