
 OpenBabel07202215583D

 19 19  0  0  0  0  0  0  0  0999 V2000
    1.0259    0.1205   -0.0226 C   0  0  0  0  0  0  0  0  0  0  0  0
    2.5493    0.0739   -0.0452 C   0  0  0  0  0  0  0  0  0  0  0  0
    3.0295   -0.8627   -1.1268 C   0  0  0  0  0  0  0  0  0  0  0  0
    2.7351   -2.2326   -1.0198 C   0  0  0  0  0  0  0  0  0  0  0  0
    3.0577   -3.1130   -2.0511 C   0  0  0  0  0  0  0  0  0  0  0  0
    3.7068   -2.6406   -3.1869 C   0  0  0  0  0  0  0  0  0  0  0  0
    4.0434   -1.2890   -3.2923 C   0  0  0  0  0  0  0  0  0  0  0  0
    3.7001   -0.4084   -2.2646 C   0  0  0  0  0  0  0  0  0  0  0  0
    4.0023    0.9205   -2.3718 O   0  0  0  0  0  0  0  0  0  0  0  0
    0.6722    0.8070    0.7508 H   0  0  0  0  0  0  0  0  0  0  0  0
    0.5970   -0.8661    0.1859 H   0  0  0  0  0  0  0  0  0  0  0  0
    0.6318    0.4529   -0.9895 H   0  0  0  0  0  0  0  0  0  0  0  0
    2.9346   -0.2656    0.9236 H   0  0  0  0  0  0  0  0  0  0  0  0
    2.9359    1.0887   -0.1910 H   0  0  0  0  0  0  0  0  0  0  0  0
    2.2221   -2.6124   -0.1399 H   0  0  0  0  0  0  0  0  0  0  0  0
    2.7866   -4.1623   -1.9673 H   0  0  0  0  0  0  0  0  0  0  0  0
    3.9481   -3.3267   -3.9947 H   0  0  0  0  0  0  0  0  0  0  0  0
    4.5547   -0.9416   -4.1831 H   0  0  0  0  0  0  0  0  0  0  0  0
    4.4524    1.0754   -3.2165 H   0  0  0  0  0  0  0  0  0  0  0  0
  1  2  1  0  0  0  0
  1 10  1  0  0  0  0
  1 11  1  0  0  0  0
  1 12  1  0  0  0  0
  2  3  1  0  0  0  0
  2 13  1  0  0  0  0
  2 14  1  0  0  0  0
  3  4  2  0  0  0  0
  3  8  1  0  0  0  0
  4  5  1  0  0  0  0
  4 15  1  0  0  0  0
  5  6  2  0  0  0  0
  5 16  1  0  0  0  0
  6  7  1  0  0  0  0
  6 17  1  0  0  0  0
  7  8  2  0  0  0  0
  7 18  1  0  0  0  0
  8  9  1  0  0  0  0
  9 19  1  0  0  0  0
M  END
$$$$
