
 OpenBabel07222214433D

 22 23  0  0  0  0  0  0  0  0999 V2000
    1.0451    0.0858    0.0194 C   0  0  0  0  0  0  0  0  0  0  0  0
    2.3851    0.0890   -0.0029 C   0  0  0  0  0  0  0  0  0  0  0  0
    3.1815    0.3467   -1.2514 C   0  0  0  0  0  0  0  0  0  0  0  0
    4.6726    0.2964   -1.0092 C   0  0  0  0  0  0  0  0  0  0  0  0
    5.4079    1.4960   -0.8713 C   0  0  0  0  0  0  0  0  0  0  0  0
    6.7785    1.4723   -0.5983 C   0  0  0  0  0  0  0  0  0  0  0  0
    7.3836    0.2422   -0.4644 C   0  0  0  0  0  0  0  0  0  0  0  0
    8.6967    0.0293   -0.1815 O   0  0  0  0  0  0  0  0  0  0  0  0
    8.7203   -1.4097   -0.0848 C   0  0  0  0  0  0  0  0  0  0  0  0
    7.4648   -2.0289   -0.4337 O   0  0  0  0  0  0  0  0  0  0  0  0
    6.6802   -0.9309   -0.6043 C   0  0  0  0  0  0  0  0  0  0  0  0
    5.3286   -0.9398   -0.8768 C   0  0  0  0  0  0  0  0  0  0  0  0
    0.5044   -0.1077    0.9403 H   0  0  0  0  0  0  0  0  0  0  0  0
    0.4644    0.2753   -0.8777 H   0  0  0  0  0  0  0  0  0  0  0  0
    2.9252   -0.1040    0.9222 H   0  0  0  0  0  0  0  0  0  0  0  0
    2.9134    1.3312   -1.6556 H   0  0  0  0  0  0  0  0  0  0  0  0
    2.9242   -0.3913   -2.0213 H   0  0  0  0  0  0  0  0  0  0  0  0
    4.9051    2.4562   -0.9713 H   0  0  0  0  0  0  0  0  0  0  0  0
    7.3441    2.3898   -0.4856 H   0  0  0  0  0  0  0  0  0  0  0  0
    8.9671   -1.6854    0.9476 H   0  0  0  0  0  0  0  0  0  0  0  0
    9.5037   -1.7952   -0.7469 H   0  0  0  0  0  0  0  0  0  0  0  0
    4.7917   -1.8783   -0.9685 H   0  0  0  0  0  0  0  0  0  0  0  0
  1  2  2  0  0  0  0
  1 13  1  0  0  0  0
  1 14  1  0  0  0  0
  2  3  1  0  0  0  0
  2 15  1  0  0  0  0
  3  4  1  0  0  0  0
  3 16  1  0  0  0  0
  3 17  1  0  0  0  0
  4  5  1  0  0  0  0
  4 12  2  0  0  0  0
  5  6  2  0  0  0  0
  5 18  1  0  0  0  0
  6  7  1  0  0  0  0
  6 19  1  0  0  0  0
  7  8  1  0  0  0  0
  7 11  2  0  0  0  0
  8  9  1  0  0  0  0
  9 10  1  0  0  0  0
  9 20  1  0  0  0  0
  9 21  1  0  0  0  0
 10 11  1  0  0  0  0
 11 12  1  0  0  0  0
 12 22  1  0  0  0  0
M  END
$$$$
