
 OpenBabel07202215583D

 24 25  0  0  0  0  0  0  0  0999 V2000
    1.0673    0.0136    0.0803 C   0  0  0  0  0  0  0  0  0  0  0  0
    2.5753    0.0451    0.1150 C   0  0  0  0  0  0  0  0  0  0  0  0
    3.1887    0.9242    0.7178 O   0  0  0  0  0  0  0  0  0  0  0  0
    3.2897   -1.0326   -0.6284 C   0  0  0  0  0  0  0  0  0  0  0  0
    4.6324   -1.0861   -0.6653 C   0  0  0  0  0  0  0  0  0  0  0  0
    5.3675   -2.0938   -1.4492 C   0  0  0  0  0  0  0  0  0  0  0  0
    6.5371   -2.6995   -0.9342 C   0  0  0  0  0  0  0  0  0  0  0  0
    7.2554   -3.6436   -1.6873 C   0  0  0  0  0  0  0  0  0  0  0  0
    6.7922   -3.9486   -2.9490 C   0  0  0  0  0  0  0  0  0  0  0  0
    7.3488   -4.8322   -3.8206 O   0  0  0  0  0  0  0  0  0  0  0  0
    6.4030   -4.7710   -4.9102 C   0  0  0  0  0  0  0  0  0  0  0  0
    5.3847   -3.7670   -4.7257 O   0  0  0  0  0  0  0  0  0  0  0  0
    5.6708   -3.3474   -3.4642 C   0  0  0  0  0  0  0  0  0  0  0  0
    4.9455   -2.4199   -2.7474 C   0  0  0  0  0  0  0  0  0  0  0  0
    0.6736    0.8534    0.6620 H   0  0  0  0  0  0  0  0  0  0  0  0
    0.6976   -0.9141    0.5250 H   0  0  0  0  0  0  0  0  0  0  0  0
    0.7069    0.1115   -0.9476 H   0  0  0  0  0  0  0  0  0  0  0  0
    2.6691   -1.7558   -1.1447 H   0  0  0  0  0  0  0  0  0  0  0  0
    5.2334   -0.3556   -0.1261 H   0  0  0  0  0  0  0  0  0  0  0  0
    6.8952   -2.4470    0.0628 H   0  0  0  0  0  0  0  0  0  0  0  0
    8.1470   -4.1202   -1.2936 H   0  0  0  0  0  0  0  0  0  0  0  0
    5.9108   -5.7467   -5.0021 H   0  0  0  0  0  0  0  0  0  0  0  0
    6.9421   -4.5625   -5.8415 H   0  0  0  0  0  0  0  0  0  0  0  0
    4.0759   -1.9560   -3.1979 H   0  0  0  0  0  0  0  0  0  0  0  0
  1  2  1  0  0  0  0
  1 15  1  0  0  0  0
  1 16  1  0  0  0  0
  1 17  1  0  0  0  0
  2  3  2  0  0  0  0
  2  4  1  0  0  0  0
  4  5  2  0  0  0  0
  4 18  1  0  0  0  0
  5  6  1  0  0  0  0
  5 19  1  0  0  0  0
  6  7  1  0  0  0  0
  6 14  2  0  0  0  0
  7  8  2  0  0  0  0
  7 20  1  0  0  0  0
  8  9  1  0  0  0  0
  8 21  1  0  0  0  0
  9 10  1  0  0  0  0
  9 13  2  0  0  0  0
 10 11  1  0  0  0  0
 11 12  1  0  0  0  0
 11 22  1  0  0  0  0
 11 23  1  0  0  0  0
 12 13  1  0  0  0  0
 13 14  1  0  0  0  0
 14 24  1  0  0  0  0
M  END
$$$$
