
 OpenBabel07202215583D

 29 29  0  0  0  0  0  0  0  0999 V2000
    1.0737   -0.0006    0.0533 C   0  0  0  0  0  0  0  0  0  0  0  0
    2.6175    0.0008    0.0709 C   0  0  0  0  0  0  0  0  0  0  0  0
    3.1043   -1.4514   -0.1013 C   0  0  0  0  0  0  0  0  0  0  0  0
    3.1271    0.8029   -1.1509 C   0  0  0  0  0  0  0  0  0  0  0  0
    3.0820    0.6480    1.3850 C   0  0  0  0  0  0  0  0  0  0  0  0
    3.6453   -0.0715    2.4596 C   0  0  0  0  0  0  0  0  0  0  0  0
    3.9944    0.5426    3.6862 C   0  0  0  0  0  0  0  0  0  0  0  0
    3.7782    1.9163    3.8181 C   0  0  0  0  0  0  0  0  0  0  0  0
    3.2319    2.6412    2.7637 C   0  0  0  0  0  0  0  0  0  0  0  0
    2.8850    2.0214    1.5707 C   0  0  0  0  0  0  0  0  0  0  0  0
    4.0247    2.7160    4.8974 O   0  0  0  0  0  0  0  0  0  0  0  0
    4.4973   -0.3586    4.5873 O   0  0  0  0  0  0  0  0  0  0  0  0
    4.8606    0.0826    5.8808 C   0  0  0  0  0  0  0  0  0  0  0  0
    0.6865   -0.4446   -0.8705 H   0  0  0  0  0  0  0  0  0  0  0  0
    0.6639    1.0143    0.1212 H   0  0  0  0  0  0  0  0  0  0  0  0
    0.6686   -0.5717    0.8970 H   0  0  0  0  0  0  0  0  0  0  0  0
    2.7594   -1.8757   -1.0515 H   0  0  0  0  0  0  0  0  0  0  0  0
    2.7254   -2.1035    0.6934 H   0  0  0  0  0  0  0  0  0  0  0  0
    4.1993   -1.5048   -0.0928 H   0  0  0  0  0  0  0  0  0  0  0  0
    2.7906    0.3498   -2.0904 H   0  0  0  0  0  0  0  0  0  0  0  0
    4.2222    0.8440   -1.1679 H   0  0  0  0  0  0  0  0  0  0  0  0
    2.7613    1.8354   -1.1611 H   0  0  0  0  0  0  0  0  0  0  0  0
    3.8141   -1.1440    2.3757 H   0  0  0  0  0  0  0  0  0  0  0  0
    3.0606    3.7078    2.8794 H   0  0  0  0  0  0  0  0  0  0  0  0
    2.4369    2.6373    0.7970 H   0  0  0  0  0  0  0  0  0  0  0  0
    4.4635    2.2435    5.6036 H   0  0  0  0  0  0  0  0  0  0  0  0
    5.2070   -0.7715    6.4688 H   0  0  0  0  0  0  0  0  0  0  0  0
    3.9958    0.5030    6.4054 H   0  0  0  0  0  0  0  0  0  0  0  0
    5.6980    0.7857    5.8209 H   0  0  0  0  0  0  0  0  0  0  0  0
  1  2  1  0  0  0  0
  1 14  1  0  0  0  0
  1 15  1  0  0  0  0
  1 16  1  0  0  0  0
  2  3  1  0  0  0  0
  2  4  1  0  0  0  0
  2  5  1  0  0  0  0
  3 17  1  0  0  0  0
  3 18  1  0  0  0  0
  3 19  1  0  0  0  0
  4 20  1  0  0  0  0
  4 21  1  0  0  0  0
  4 22  1  0  0  0  0
  5  6  2  0  0  0  0
  5 10  1  0  0  0  0
  6  7  1  0  0  0  0
  6 23  1  0  0  0  0
  7  8  2  0  0  0  0
  7 12  1  0  0  0  0
  8  9  1  0  0  0  0
  8 11  1  0  0  0  0
  9 10  2  0  0  0  0
  9 24  1  0  0  0  0
 10 25  1  0  0  0  0
 11 26  1  0  0  0  0
 12 13  1  0  0  0  0
 13 27  1  0  0  0  0
 13 28  1  0  0  0  0
 13 29  1  0  0  0  0
M  END
$$$$
