
 OpenBabel07202215583D

 26 25  0  0  0  0  0  0  0  0999 V2000
    1.0502   -0.0015    0.0724 C   0  0  0  0  0  0  0  0  0  0  0  0
    2.5687   -0.0034    0.0903 C   0  0  0  0  0  0  0  0  0  0  0  0
    3.0972   -0.1525    1.5180 C   0  0  0  0  0  0  0  0  0  0  0  0
    4.6228   -0.1542    1.5341 C   0  0  0  0  0  0  0  0  0  0  0  0
    5.1997   -0.3017    2.9464 C   0  0  0  0  0  0  0  0  0  0  0  0
    6.7154   -0.2963    2.8947 C   0  0  0  0  0  0  0  0  0  0  0  0
    7.3712   -0.1887    1.8644 O   0  0  0  0  0  0  0  0  0  0  0  0
    7.2602   -0.4264    4.1405 O   0  0  0  0  0  0  0  0  0  0  0  0
    8.6996   -0.4258    4.1344 C   0  0  0  0  0  0  0  0  0  0  0  0
    9.2251   -0.5738    5.5513 C   0  0  0  0  0  0  0  0  0  0  0  0
    0.6799    0.1054   -0.9514 H   0  0  0  0  0  0  0  0  0  0  0  0
    0.6566    0.8285    0.6677 H   0  0  0  0  0  0  0  0  0  0  0  0
    0.6566   -0.9366    0.4833 H   0  0  0  0  0  0  0  0  0  0  0  0
    2.9379    0.9299   -0.3517 H   0  0  0  0  0  0  0  0  0  0  0  0
    2.9379   -0.8251   -0.5350 H   0  0  0  0  0  0  0  0  0  0  0  0
    2.7204   -1.0860    1.9526 H   0  0  0  0  0  0  0  0  0  0  0  0
    2.7204    0.6711    2.1361 H   0  0  0  0  0  0  0  0  0  0  0  0
    4.9899    0.7776    1.0850 H   0  0  0  0  0  0  0  0  0  0  0  0
    4.9899   -0.9730    0.9021 H   0  0  0  0  0  0  0  0  0  0  0  0
    4.8583   -1.2449    3.3871 H   0  0  0  0  0  0  0  0  0  0  0  0
    4.8583    0.5302    3.5725 H   0  0  0  0  0  0  0  0  0  0  0  0
    9.0653    0.5178    3.7124 H   0  0  0  0  0  0  0  0  0  0  0  0
    9.0653   -1.2617    3.5265 H   0  0  0  0  0  0  0  0  0  0  0  0
    8.8734    0.2460    6.1854 H   0  0  0  0  0  0  0  0  0  0  0  0
   10.3204   -0.5747    5.5601 H   0  0  0  0  0  0  0  0  0  0  0  0
    8.8735   -1.5069    6.0023 H   0  0  0  0  0  0  0  0  0  0  0  0
  1  2  1  0  0  0  0
  1 11  1  0  0  0  0
  1 12  1  0  0  0  0
  1 13  1  0  0  0  0
  2  3  1  0  0  0  0
  2 14  1  0  0  0  0
  2 15  1  0  0  0  0
  3  4  1  0  0  0  0
  3 16  1  0  0  0  0
  3 17  1  0  0  0  0
  4  5  1  0  0  0  0
  4 18  1  0  0  0  0
  4 19  1  0  0  0  0
  5  6  1  0  0  0  0
  5 20  1  0  0  0  0
  5 21  1  0  0  0  0
  6  7  2  0  0  0  0
  6  8  1  0  0  0  0
  8  9  1  0  0  0  0
  9 10  1  0  0  0  0
  9 22  1  0  0  0  0
  9 23  1  0  0  0  0
 10 24  1  0  0  0  0
 10 25  1  0  0  0  0
 10 26  1  0  0  0  0
M  END
$$$$
