
 OpenBabel07122215493D

 23 23  0  0  0  0  0  0  0  0999 V2000
    1.0464   -0.0599    0.0920 C   0  0  0  0  0  0  0  0  0  0  0  0
    2.5852   -0.0548    0.0413 C   0  0  0  0  0  0  0  0  0  0  0  0
    3.1078   -0.2372   -1.3912 C   0  0  0  0  0  0  0  0  0  0  0  0
    2.6558   -1.5305   -2.0113 C   0  0  0  0  0  0  0  0  0  0  0  0
    2.9151   -1.8330   -3.1773 O   0  0  0  0  0  0  0  0  0  0  0  0
    3.0573    1.2646    0.6338 C   0  0  0  0  0  0  0  0  0  0  0  0
    3.6640    1.3226    1.8951 C   0  0  0  0  0  0  0  0  0  0  0  0
    3.8668    2.5594    2.5146 C   0  0  0  0  0  0  0  0  0  0  0  0
    3.5431    3.7432    1.8504 C   0  0  0  0  0  0  0  0  0  0  0  0
    3.0012    3.6972    0.5718 C   0  0  0  0  0  0  0  0  0  0  0  0
    2.7589    2.4677   -0.0283 C   0  0  0  0  0  0  0  0  0  0  0  0
    0.6236   -0.9945   -0.2837 H   0  0  0  0  0  0  0  0  0  0  0  0
    0.6239    0.7523   -0.5110 H   0  0  0  0  0  0  0  0  0  0  0  0
    0.6880    0.0717    1.1193 H   0  0  0  0  0  0  0  0  0  0  0  0
    2.9503   -0.8883    0.6579 H   0  0  0  0  0  0  0  0  0  0  0  0
    4.2041   -0.2242   -1.3943 H   0  0  0  0  0  0  0  0  0  0  0  0
    2.7561    0.5667   -2.0464 H   0  0  0  0  0  0  0  0  0  0  0  0
    2.0662   -2.2135   -1.3818 H   0  0  0  0  0  0  0  0  0  0  0  0
    3.9516    0.4155    2.4224 H   0  0  0  0  0  0  0  0  0  0  0  0
    4.2525    2.6029    3.5301 H   0  0  0  0  0  0  0  0  0  0  0  0
    3.7073    4.7035    2.3302 H   0  0  0  0  0  0  0  0  0  0  0  0
    2.7297    4.6098    0.0495 H   0  0  0  0  0  0  0  0  0  0  0  0
    2.2883    2.4573   -1.0082 H   0  0  0  0  0  0  0  0  0  0  0  0
  1  2  1  0  0  0  0
  1 12  1  0  0  0  0
  1 13  1  0  0  0  0
  1 14  1  0  0  0  0
  2  3  1  0  0  0  0
  2  6  1  0  0  0  0
  2 15  1  0  0  0  0
  3  4  1  0  0  0  0
  3 16  1  0  0  0  0
  3 17  1  0  0  0  0
  4  5  2  0  0  0  0
  4 18  1  0  0  0  0
  6  7  1  0  0  0  0
  6 11  2  0  0  0  0
  7  8  2  0  0  0  0
  7 19  1  0  0  0  0
  8  9  1  0  0  0  0
  8 20  1  0  0  0  0
  9 10  2  0  0  0  0
  9 21  1  0  0  0  0
 10 11  1  0  0  0  0
 10 22  1  0  0  0  0
 11 23  1  0  0  0  0
M  END
$$$$
