
 OpenBabel07222214443D

 34 35  0  0  1  0  0  0  0  0999 V2000
    6.1582   -1.0746    3.7981 C   0  0  0  0  0  0  0  0  0  0  0  0
    6.0598   -2.0267    2.5672 C   0  0  0  0  0  0  0  0  0  0  0  0
    6.7866   -2.9996    2.5241 O   0  0  0  0  0  0  0  0  0  0  0  0
    5.2196   -1.7687    1.4891 O   0  0  0  0  0  0  0  0  0  0  0  0
    4.6365   -0.5040    0.9916 C   0  0  1  0  0  0  0  0  0  0  0  0
    5.0445    0.5984    1.9131 C   0  0  0  0  0  0  0  0  0  0  0  0
    5.8732    1.6253    1.1863 C   0  0  2  0  0  0  0  0  0  0  0  0
    4.8107    2.4308    0.4917 C   0  0  0  0  0  0  0  0  0  0  0  0
    4.3703    1.4270   -0.6002 C   0  0  0  0  0  0  0  0  0  0  0  0
    5.2399    0.1242   -0.3295 C   0  0  1  0  0  0  0  0  0  0  0  0
    6.6013    0.7653    0.1045 C   0  0  0  0  0  0  0  0  0  0  0  0
    7.3304    1.6423   -0.9159 C   0  0  0  0  0  0  0  0  0  0  0  0
    7.7102   -0.2190    0.5581 C   0  0  0  0  0  0  0  0  0  0  0  0
    5.3037   -0.8282   -1.5005 C   0  0  0  0  0  0  0  0  0  0  0  0
    6.8938   -1.4596    4.4998 H   0  0  0  0  0  0  0  0  0  0  0  0
    5.1750   -0.9416    4.2496 H   0  0  0  0  0  0  0  0  0  0  0  0
    6.6298   -0.0823    3.6805 H   0  0  0  0  0  0  0  0  0  0  0  0
    3.5495   -0.6500    0.9004 H   0  0  0  0  0  0  0  0  0  0  0  0
    5.9020    0.1858    2.3066 H   0  0  0  0  0  0  0  0  0  0  0  0
    4.3559    0.8660    2.7139 H   0  0  0  0  0  0  0  0  0  0  0  0
    6.5414    2.1590    1.8697 H   0  0  0  0  0  0  0  0  0  0  0  0
    5.2203    3.3661    0.1077 H   0  0  0  0  0  0  0  0  0  0  0  0
    3.9995    2.6803    1.1901 H   0  0  0  0  0  0  0  0  0  0  0  0
    4.5656    1.8569   -1.5849 H   0  0  0  0  0  0  0  0  0  0  0  0
    3.2977    1.2232   -0.5176 H   0  0  0  0  0  0  0  0  0  0  0  0
    6.7214    2.4426   -1.3297 H   0  0  0  0  0  0  0  0  0  0  0  0
    7.7054    1.0339   -1.7449 H   0  0  0  0  0  0  0  0  0  0  0  0
    8.1964    2.1157   -0.4339 H   0  0  0  0  0  0  0  0  0  0  0  0
    7.4428   -0.9185    1.3233 H   0  0  0  0  0  0  0  0  0  0  0  0
    8.5747    0.3054    0.9804 H   0  0  0  0  0  0  0  0  0  0  0  0
    8.0598   -0.8414   -0.2754 H   0  0  0  0  0  0  0  0  0  0  0  0
    4.3072   -1.2021   -1.7546 H   0  0  0  0  0  0  0  0  0  0  0  0
    5.9412   -1.6894   -1.2780 H   0  0  0  0  0  0  0  0  0  0  0  0
    5.7114   -0.3289   -2.3855 H   0  0  0  0  0  0  0  0  0  0  0  0
  1  2  1  0  0  0  0
  1 15  1  0  0  0  0
  1 16  1  0  0  0  0
  1 17  1  0  0  0  0
  2  3  2  0  0  0  0
  2  4  1  0  0  0  0
  5  6  1  0  0  0  0
  5 10  1  0  0  0  0
  5  4  1  0  0  0  0
  5 18  1  6  0  0  0
  6  7  1  0  0  0  0
  6 19  1  0  0  0  0
  6 20  1  0  0  0  0
  7  8  1  0  0  0  0
  7 11  1  0  0  0  0
  7 21  1  1  0  0  0
  8  9  1  0  0  0  0
  8 22  1  0  0  0  0
  8 23  1  0  0  0  0
  9 10  1  0  0  0  0
  9 24  1  0  0  0  0
  9 25  1  0  0  0  0
 10 11  1  0  0  0  0
 10 14  1  6  0  0  0
 11 12  1  0  0  0  0
 11 13  1  0  0  0  0
 12 26  1  0  0  0  0
 12 27  1  0  0  0  0
 12 28  1  0  0  0  0
 13 29  1  0  0  0  0
 13 30  1  0  0  0  0
 13 31  1  0  0  0  0
 14 32  1  0  0  0  0
 14 33  1  0  0  0  0
 14 34  1  0  0  0  0
M  END
$$$$
