
 OpenBabel07202215583D

 34 33  0  0  0  0  0  0  0  0999 V2000
    0.9623   -0.0162   -0.0926 C   0  0  0  0  0  0  0  0  0  0  0  0
    2.4782   -0.0230   -0.0926 C   0  0  0  0  0  0  0  0  0  0  0  0
    3.0011   -1.4517   -0.0930 C   0  0  0  0  0  0  0  0  0  0  0  0
    4.5208   -1.4627   -0.0930 C   0  0  0  0  0  0  0  0  0  0  0  0
    5.0261   -2.8950   -0.0934 C   0  0  0  0  0  0  0  0  0  0  0  0
    6.5413   -2.9151   -0.0934 C   0  0  0  0  0  0  0  0  0  0  0  0
    7.0371   -4.3535   -0.0938 C   0  0  0  0  0  0  0  0  0  0  0  0
    8.5498   -4.3489   -0.0938 C   0  0  0  0  0  0  0  0  0  0  0  0
    9.1329   -5.7480   -0.0942 C   0  0  0  0  0  0  0  0  0  0  0  0
   10.6490   -5.7710   -0.0942 C   0  0  0  0  0  0  0  0  0  0  0  0
   11.4428   -4.4855   -0.0938 C   0  0  0  0  0  0  0  0  0  0  0  0
   11.2423   -6.8565   -0.0945 O   0  0  0  0  0  0  0  0  0  0  0  0
    0.5883    1.0108   -0.0923 H   0  0  0  0  0  0  0  0  0  0  0  0
    0.5734   -0.5266    0.7943 H   0  0  0  0  0  0  0  0  0  0  0  0
    0.5734   -0.5261   -0.9798 H   0  0  0  0  0  0  0  0  0  0  0  0
    2.8495    0.5098    0.7906 H   0  0  0  0  0  0  0  0  0  0  0  0
    2.8495    0.5103   -0.9755 H   0  0  0  0  0  0  0  0  0  0  0  0
    2.6287   -1.9863   -0.9757 H   0  0  0  0  0  0  0  0  0  0  0  0
    2.6287   -1.9868    0.7894 H   0  0  0  0  0  0  0  0  0  0  0  0
    4.9000   -0.9343    0.7903 H   0  0  0  0  0  0  0  0  0  0  0  0
    4.9000   -0.9338   -0.9760 H   0  0  0  0  0  0  0  0  0  0  0  0
    4.6502   -3.4250   -0.9769 H   0  0  0  0  0  0  0  0  0  0  0  0
    4.6502   -3.4255    0.7899 H   0  0  0  0  0  0  0  0  0  0  0  0
    6.9234   -2.3852    0.7887 H   0  0  0  0  0  0  0  0  0  0  0  0
    6.9234   -2.3847   -0.9752 H   0  0  0  0  0  0  0  0  0  0  0  0
    6.6632   -4.8804   -0.9792 H   0  0  0  0  0  0  0  0  0  0  0  0
    6.6632   -4.8808    0.7913 H   0  0  0  0  0  0  0  0  0  0  0  0
    8.8984   -3.8054    0.7935 H   0  0  0  0  0  0  0  0  0  0  0  0
    8.8984   -3.8049   -0.9808 H   0  0  0  0  0  0  0  0  0  0  0  0
    8.7881   -6.2912   -0.9821 H   0  0  0  0  0  0  0  0  0  0  0  0
    8.7881   -6.2917    0.7935 H   0  0  0  0  0  0  0  0  0  0  0  0
   10.8312   -3.5845   -0.0936 H   0  0  0  0  0  0  0  0  0  0  0  0
   12.0612   -4.4507   -0.9931 H   0  0  0  0  0  0  0  0  0  0  0  0
   12.0612   -4.4512    0.8055 H   0  0  0  0  0  0  0  0  0  0  0  0
  1  2  1  0  0  0  0
  1 13  1  0  0  0  0
  1 14  1  0  0  0  0
  1 15  1  0  0  0  0
  2  3  1  0  0  0  0
  2 16  1  0  0  0  0
  2 17  1  0  0  0  0
  3  4  1  0  0  0  0
  3 18  1  0  0  0  0
  3 19  1  0  0  0  0
  4  5  1  0  0  0  0
  4 20  1  0  0  0  0
  4 21  1  0  0  0  0
  5  6  1  0  0  0  0
  5 22  1  0  0  0  0
  5 23  1  0  0  0  0
  6  7  1  0  0  0  0
  6 24  1  0  0  0  0
  6 25  1  0  0  0  0
  7  8  1  0  0  0  0
  7 26  1  0  0  0  0
  7 27  1  0  0  0  0
  8  9  1  0  0  0  0
  8 28  1  0  0  0  0
  8 29  1  0  0  0  0
  9 10  1  0  0  0  0
  9 30  1  0  0  0  0
  9 31  1  0  0  0  0
 10 11  1  0  0  0  0
 10 12  2  0  0  0  0
 11 32  1  0  0  0  0
 11 33  1  0  0  0  0
 11 34  1  0  0  0  0
M  END
$$$$
