
 OpenBabel07202215583D

 15 14  0  0  0  0  0  0  0  0999 V2000
    0.9517   -0.0609   -0.0040 C   0  0  0  0  0  0  0  0  0  0  0  0
    2.4847   -0.0730   -0.0378 C   0  0  0  0  0  0  0  0  0  0  0  0
    2.9548   -1.1367   -1.0335 C   0  0  0  0  0  0  0  0  0  0  0  0
    3.0017    1.3347   -0.3791 C   0  0  0  0  0  0  0  0  0  0  0  0
    4.8172    1.4742   -0.3934 S   0  0  0  0  0  0  0  0  0  0  0  0
    0.5601   -1.0453    0.2754 H   0  0  0  0  0  0  0  0  0  0  0  0
    0.5361    0.2006   -0.9830 H   0  0  0  0  0  0  0  0  0  0  0  0
    0.5798    0.6653    0.7267 H   0  0  0  0  0  0  0  0  0  0  0  0
    2.8381   -0.3518    0.9628 H   0  0  0  0  0  0  0  0  0  0  0  0
    2.6198   -0.9006   -2.0486 H   0  0  0  0  0  0  0  0  0  0  0  0
    2.5537   -2.1202   -0.7649 H   0  0  0  0  0  0  0  0  0  0  0  0
    4.0448   -1.2282   -1.0468 H   0  0  0  0  0  0  0  0  0  0  0  0
    2.6271    2.0562    0.3557 H   0  0  0  0  0  0  0  0  0  0  0  0
    2.6353    1.6479   -1.3620 H   0  0  0  0  0  0  0  0  0  0  0  0
    5.0273    1.0017    0.8436 H   0  0  0  0  0  0  0  0  0  0  0  0
  1  2  1  0  0  0  0
  1  6  1  0  0  0  0
  1  7  1  0  0  0  0
  1  8  1  0  0  0  0
  2  3  1  0  0  0  0
  2  4  1  0  0  0  0
  2  9  1  0  0  0  0
  3 10  1  0  0  0  0
  3 11  1  0  0  0  0
  3 12  1  0  0  0  0
  4  5  1  0  0  0  0
  4 13  1  0  0  0  0
  4 14  1  0  0  0  0
  5 15  1  0  0  0  0
M  END
$$$$
