
 OpenBabel07202215583D

 30 29  0  0  0  0  0  0  0  0999 V2000
    0.8968    0.0140   -0.0629 C   0  0  0  0  0  0  0  0  0  0  0  0
    2.4155    0.0028   -0.0683 C   0  0  0  0  0  0  0  0  0  0  0  0
    2.9472   -1.2925   -0.6750 C   0  0  0  0  0  0  0  0  0  0  0  0
    4.4727   -1.3062   -0.6820 C   0  0  0  0  0  0  0  0  0  0  0  0
    4.9978   -2.6036   -1.2899 C   0  0  0  0  0  0  0  0  0  0  0  0
    6.5234   -2.6154   -1.2972 C   0  0  0  0  0  0  0  0  0  0  0  0
    7.0540   -3.9105   -1.9055 C   0  0  0  0  0  0  0  0  0  0  0  0
    8.5826   -3.9230   -1.9108 C   0  0  0  0  0  0  0  0  0  0  0  0
    9.1049   -5.2193   -2.5197 C   0  0  0  0  0  0  0  0  0  0  0  0
   10.9187   -5.2591   -2.4809 S   0  0  0  0  0  0  0  0  0  0  0  0
    0.5261    0.9462    0.3739 H   0  0  0  0  0  0  0  0  0  0  0  0
    0.5031   -0.8205    0.5256 H   0  0  0  0  0  0  0  0  0  0  0  0
    0.5032   -0.0676   -1.0809 H   0  0  0  0  0  0  0  0  0  0  0  0
    2.7839    0.1127    0.9581 H   0  0  0  0  0  0  0  0  0  0  0  0
    2.7839    0.8618   -0.6403 H   0  0  0  0  0  0  0  0  0  0  0  0
    2.5739   -1.4009   -1.7006 H   0  0  0  0  0  0  0  0  0  0  0  0
    2.5740   -2.1498   -0.1026 H   0  0  0  0  0  0  0  0  0  0  0  0
    4.8486   -1.2003    0.3428 H   0  0  0  0  0  0  0  0  0  0  0  0
    4.8484   -0.4509   -1.2555 H   0  0  0  0  0  0  0  0  0  0  0  0
    4.6220   -2.7104   -2.3148 H   0  0  0  0  0  0  0  0  0  0  0  0
    4.6231   -3.4594   -0.7166 H   0  0  0  0  0  0  0  0  0  0  0  0
    6.8969   -2.5087   -0.2715 H   0  0  0  0  0  0  0  0  0  0  0  0
    6.8960   -1.7578   -1.8691 H   0  0  0  0  0  0  0  0  0  0  0  0
    6.6788   -4.0168   -2.9308 H   0  0  0  0  0  0  0  0  0  0  0  0
    6.6788   -4.7667   -1.3328 H   0  0  0  0  0  0  0  0  0  0  0  0
    8.9456   -3.8128   -0.8810 H   0  0  0  0  0  0  0  0  0  0  0  0
    8.9485   -3.0607   -2.4817 H   0  0  0  0  0  0  0  0  0  0  0  0
    8.7748   -5.3146   -3.5593 H   0  0  0  0  0  0  0  0  0  0  0  0
    8.7281   -6.0832   -1.9638 H   0  0  0  0  0  0  0  0  0  0  0  0
   11.1149   -4.1687   -3.2364 H   0  0  0  0  0  0  0  0  0  0  0  0
  1  2  1  0  0  0  0
  1 11  1  0  0  0  0
  1 12  1  0  0  0  0
  1 13  1  0  0  0  0
  2  3  1  0  0  0  0
  2 14  1  0  0  0  0
  2 15  1  0  0  0  0
  3  4  1  0  0  0  0
  3 16  1  0  0  0  0
  3 17  1  0  0  0  0
  4  5  1  0  0  0  0
  4 18  1  0  0  0  0
  4 19  1  0  0  0  0
  5  6  1  0  0  0  0
  5 20  1  0  0  0  0
  5 21  1  0  0  0  0
  6  7  1  0  0  0  0
  6 22  1  0  0  0  0
  6 23  1  0  0  0  0
  7  8  1  0  0  0  0
  7 24  1  0  0  0  0
  7 25  1  0  0  0  0
  8  9  1  0  0  0  0
  8 26  1  0  0  0  0
  8 27  1  0  0  0  0
  9 10  1  0  0  0  0
  9 28  1  0  0  0  0
  9 29  1  0  0  0  0
 10 30  1  0  0  0  0
M  END
$$$$
