
 OpenBabel07222214433D

 25 24  0  0  0  0  0  0  0  0999 V2000
    0.9290   -0.0568    0.0414 C   0  0  0  0  0  0  0  0  0  0  0  0
    2.4447   -0.0563    0.0405 C   0  0  0  0  0  0  0  0  0  0  0  0
    2.9795   -0.7652    1.2736 C   0  0  0  0  0  0  0  0  0  0  0  0
    4.5035   -0.7617    1.2676 C   0  0  0  0  0  0  0  0  0  0  0  0
    5.0053   -1.4742    2.5069 C   0  0  0  0  0  0  0  0  0  0  0  0
    6.5198   -1.5168    2.5811 C   0  0  0  0  0  0  0  0  0  0  0  0
    7.0478   -2.2256    3.8139 C   0  0  0  0  0  0  0  0  0  0  0  0
    6.1012   -2.8124    4.8347 C   0  0  0  0  0  0  0  0  0  0  0  0
    8.2691   -2.3240    3.9851 O   0  0  0  0  0  0  0  0  0  0  0  0
    0.5519    0.4545   -0.8480 H   0  0  0  0  0  0  0  0  0  0  0  0
    0.5418    0.4574    0.9268 H   0  0  0  0  0  0  0  0  0  0  0  0
    0.5418   -1.0807    0.0426 H   0  0  0  0  0  0  0  0  0  0  0  0
    2.8133    0.9755    0.0182 H   0  0  0  0  0  0  0  0  0  0  0  0
    2.8133   -0.5563   -0.8624 H   0  0  0  0  0  0  0  0  0  0  0  0
    2.6094   -1.7984    1.3022 H   0  0  0  0  0  0  0  0  0  0  0  0
    2.6094   -0.2700    2.1808 H   0  0  0  0  0  0  0  0  0  0  0  0
    4.8776    0.2683    1.2522 H   0  0  0  0  0  0  0  0  0  0  0  0
    4.8776   -1.2667    0.3697 H   0  0  0  0  0  0  0  0  0  0  0  0
    4.6097   -2.4977    2.5076 H   0  0  0  0  0  0  0  0  0  0  0  0
    4.6097   -0.9598    3.3917 H   0  0  0  0  0  0  0  0  0  0  0  0
    6.9182   -0.4952    2.5851 H   0  0  0  0  0  0  0  0  0  0  0  0
    6.9182   -2.0344    1.7002 H   0  0  0  0  0  0  0  0  0  0  0  0
    5.0479   -2.6746    4.5951 H   0  0  0  0  0  0  0  0  0  0  0  0
    6.2751   -2.3292    5.7984 H   0  0  0  0  0  0  0  0  0  0  0  0
    6.2751   -3.8884    4.9021 H   0  0  0  0  0  0  0  0  0  0  0  0
  1  2  1  0  0  0  0
  1 10  1  0  0  0  0
  1 11  1  0  0  0  0
  1 12  1  0  0  0  0
  2  3  1  0  0  0  0
  2 13  1  0  0  0  0
  2 14  1  0  0  0  0
  3  4  1  0  0  0  0
  3 15  1  0  0  0  0
  3 16  1  0  0  0  0
  4  5  1  0  0  0  0
  4 17  1  0  0  0  0
  4 18  1  0  0  0  0
  5  6  1  0  0  0  0
  5 19  1  0  0  0  0
  5 20  1  0  0  0  0
  6  7  1  0  0  0  0
  6 21  1  0  0  0  0
  6 22  1  0  0  0  0
  7  8  1  0  0  0  0
  7  9  2  0  0  0  0
  8 23  1  0  0  0  0
  8 24  1  0  0  0  0
  8 25  1  0  0  0  0
M  END
$$$$
