
 OpenBabel07222214433D

 27 26  0  0  0  0  0  0  0  0999 V2000
    0.9144   -0.0017    0.0626 C   0  0  0  0  0  0  0  0  0  0  0  0
    2.4317    0.0006    0.0648 C   0  0  0  0  0  0  0  0  0  0  0  0
    2.9699   -0.8420    1.2123 C   0  0  0  0  0  0  0  0  0  0  0  0
    4.4947   -0.8340    1.2216 C   0  0  0  0  0  0  0  0  0  0  0  0
    5.0032   -1.6917    2.3696 C   0  0  0  0  0  0  0  0  0  0  0  0
    6.5260   -1.7406    2.4047 C   0  0  0  0  0  0  0  0  0  0  0  0
    7.0409   -2.6171    3.5481 C   0  0  0  0  0  0  0  0  0  0  0  0
    6.5845   -4.0665    3.4310 C   0  0  0  0  0  0  0  0  0  0  0  0
    8.4672   -2.5829    3.5460 O   0  0  0  0  0  0  0  0  0  0  0  0
    0.5369    0.6086   -0.7623 H   0  0  0  0  0  0  0  0  0  0  0  0
    0.5238    0.4067    1.0002 H   0  0  0  0  0  0  0  0  0  0  0  0
    0.5270   -1.0187   -0.0561 H   0  0  0  0  0  0  0  0  0  0  0  0
    2.7968    1.0298    0.1574 H   0  0  0  0  0  0  0  0  0  0  0  0
    2.8001   -0.3928   -0.8897 H   0  0  0  0  0  0  0  0  0  0  0  0
    2.6058   -1.8732    1.1170 H   0  0  0  0  0  0  0  0  0  0  0  0
    2.5932   -0.4571    2.1682 H   0  0  0  0  0  0  0  0  0  0  0  0
    4.8677    0.1914    1.3240 H   0  0  0  0  0  0  0  0  0  0  0  0
    4.8728   -1.2288    0.2706 H   0  0  0  0  0  0  0  0  0  0  0  0
    4.5935   -2.6991    2.2433 H   0  0  0  0  0  0  0  0  0  0  0  0
    4.6252   -1.3048    3.3238 H   0  0  0  0  0  0  0  0  0  0  0  0
    6.9312   -0.7261    2.5154 H   0  0  0  0  0  0  0  0  0  0  0  0
    6.9158   -2.1093    1.4472 H   0  0  0  0  0  0  0  0  0  0  0  0
    6.7078   -2.2054    4.5064 H   0  0  0  0  0  0  0  0  0  0  0  0
    6.9113   -4.5005    2.4797 H   0  0  0  0  0  0  0  0  0  0  0  0
    5.4969   -4.1607    3.4996 H   0  0  0  0  0  0  0  0  0  0  0  0
    7.0212   -4.6731    4.2293 H   0  0  0  0  0  0  0  0  0  0  0  0
    8.7723   -2.9445    2.7002 H   0  0  0  0  0  0  0  0  0  0  0  0
  1  2  1  0  0  0  0
  1 10  1  0  0  0  0
  1 11  1  0  0  0  0
  1 12  1  0  0  0  0
  2  3  1  0  0  0  0
  2 13  1  0  0  0  0
  2 14  1  0  0  0  0
  3  4  1  0  0  0  0
  3 15  1  0  0  0  0
  3 16  1  0  0  0  0
  4  5  1  0  0  0  0
  4 17  1  0  0  0  0
  4 18  1  0  0  0  0
  5  6  1  0  0  0  0
  5 19  1  0  0  0  0
  5 20  1  0  0  0  0
  6  7  1  0  0  0  0
  6 21  1  0  0  0  0
  6 22  1  0  0  0  0
  7  8  1  0  0  0  0
  7  9  1  0  0  0  0
  7 23  1  0  0  0  0
  8 24  1  0  0  0  0
  8 25  1  0  0  0  0
  8 26  1  0  0  0  0
  9 27  1  0  0  0  0
M  END
$$$$
