
 OpenBabel07222214433D

 34 34  0  0  0  0  0  0  0  0999 V2000
    1.0453    0.0673   -0.0701 C   0  0  0  0  0  0  0  0  0  0  0  0
    2.5356    0.0686   -0.1048 C   0  0  0  0  0  0  0  0  0  0  0  0
    3.2415    0.5782   -1.1284 C   0  0  0  0  0  0  0  0  0  0  0  0
    4.7274    0.6545   -1.0432 C   0  0  0  0  0  0  0  0  0  0  0  0
    5.3088    0.1975   -0.0594 O   0  0  0  0  0  0  0  0  0  0  0  0
    5.4860    1.2963   -2.1877 C   0  0  0  0  0  0  0  0  0  0  0  0
    5.1367    2.5146   -2.6783 C   0  0  0  0  0  0  0  0  0  0  0  0
    4.0475    3.4113   -2.1453 C   0  0  0  0  0  0  0  0  0  0  0  0
    5.8849    3.1788   -3.8216 C   0  0  0  0  0  0  0  0  0  0  0  0
    6.8492    2.2708   -4.5682 C   0  0  0  0  0  0  0  0  0  0  0  0
    7.6457    1.4447   -3.5753 C   0  0  0  0  0  0  0  0  0  0  0  0
    6.7363    0.5373   -2.6963 C   0  0  0  0  0  0  0  0  0  0  0  0
    7.6448    0.0265   -1.5566 C   0  0  0  0  0  0  0  0  0  0  0  0
    6.2866   -0.6743   -3.5376 C   0  0  0  0  0  0  0  0  0  0  0  0
    0.6887   -0.4340    0.8354 H   0  0  0  0  0  0  0  0  0  0  0  0
    0.6375   -0.4629   -0.9347 H   0  0  0  0  0  0  0  0  0  0  0  0
    0.6609    1.0925   -0.0559 H   0  0  0  0  0  0  0  0  0  0  0  0
    3.0492   -0.3467    0.7625 H   0  0  0  0  0  0  0  0  0  0  0  0
    2.7456    0.9977   -1.9937 H   0  0  0  0  0  0  0  0  0  0  0  0
    3.5083    3.0113   -1.2887 H   0  0  0  0  0  0  0  0  0  0  0  0
    3.3164    3.6187   -2.9341 H   0  0  0  0  0  0  0  0  0  0  0  0
    4.4801    4.3580   -1.8080 H   0  0  0  0  0  0  0  0  0  0  0  0
    6.4447    4.0298   -3.4114 H   0  0  0  0  0  0  0  0  0  0  0  0
    5.1718    3.5880   -4.5477 H   0  0  0  0  0  0  0  0  0  0  0  0
    7.5265    2.8767   -5.1820 H   0  0  0  0  0  0  0  0  0  0  0  0
    6.2998    1.6230   -5.2603 H   0  0  0  0  0  0  0  0  0  0  0  0
    8.2209    2.1309   -2.9373 H   0  0  0  0  0  0  0  0  0  0  0  0
    8.3851    0.8402   -4.1164 H   0  0  0  0  0  0  0  0  0  0  0  0
    7.9531    0.8507   -0.9025 H   0  0  0  0  0  0  0  0  0  0  0  0
    8.5500   -0.4471   -1.9519 H   0  0  0  0  0  0  0  0  0  0  0  0
    7.1587   -0.7384   -0.9458 H   0  0  0  0  0  0  0  0  0  0  0  0
    5.6778   -0.3737   -4.3971 H   0  0  0  0  0  0  0  0  0  0  0  0
    5.6937   -1.3778   -2.9438 H   0  0  0  0  0  0  0  0  0  0  0  0
    7.1536   -1.2223   -3.9268 H   0  0  0  0  0  0  0  0  0  0  0  0
  1  2  1  0  0  0  0
  1 15  1  0  0  0  0
  1 16  1  0  0  0  0
  1 17  1  0  0  0  0
  2  3  2  0  0  0  0
  2 18  1  0  0  0  0
  3  4  1  0  0  0  0
  3 19  1  0  0  0  0
  4  5  2  0  0  0  0
  4  6  1  0  0  0  0
  6  7  2  0  0  0  0
  6 12  1  0  0  0  0
  7  8  1  0  0  0  0
  7  9  1  0  0  0  0
  8 20  1  0  0  0  0
  8 21  1  0  0  0  0
  8 22  1  0  0  0  0
  9 10  1  0  0  0  0
  9 23  1  0  0  0  0
  9 24  1  0  0  0  0
 10 11  1  0  0  0  0
 10 25  1  0  0  0  0
 10 26  1  0  0  0  0
 11 12  1  0  0  0  0
 11 27  1  0  0  0  0
 11 28  1  0  0  0  0
 12 13  1  0  0  0  0
 12 14  1  0  0  0  0
 13 29  1  0  0  0  0
 13 30  1  0  0  0  0
 13 31  1  0  0  0  0
 14 32  1  0  0  0  0
 14 33  1  0  0  0  0
 14 34  1  0  0  0  0
M  END
$$$$
