
 OpenBabel07122215493D

 29 28  0  0  0  0  0  0  0  0999 V2000
    0.9055   -0.0570   -0.0553 C   0  0  0  0  0  0  0  0  0  0  0  0
    2.4196   -0.0508   -0.0476 C   0  0  0  0  0  0  0  0  0  0  0  0
    2.9734    0.8222    1.0421 C   0  0  0  0  0  0  0  0  0  0  0  0
    4.2914    0.9771    1.2353 C   0  0  0  0  0  0  0  0  0  0  0  0
    5.3050    0.2869    0.3739 C   0  0  0  0  0  0  0  0  0  0  0  0
    6.7261    0.6215    0.7915 C   0  0  0  0  0  0  0  0  0  0  0  0
    7.7156   -0.1026   -0.1123 C   0  0  0  0  0  0  0  0  0  0  0  0
    9.1439    0.2252    0.2969 C   0  0  0  0  0  0  0  0  0  0  0  0
   10.1351   -0.4961   -0.6033 C   0  0  0  0  0  0  0  0  0  0  0  0
   11.5492   -0.1777   -0.2060 C   0  0  0  0  0  0  0  0  0  0  0  0
   12.5229   -0.6468   -0.7914 O   0  0  0  0  0  0  0  0  0  0  0  0
    0.5403   -0.7017   -0.8600 H   0  0  0  0  0  0  0  0  0  0  0  0
    0.5137    0.9520   -0.2171 H   0  0  0  0  0  0  0  0  0  0  0  0
    0.5137   -0.4349    0.8941 H   0  0  0  0  0  0  0  0  0  0  0  0
    2.7765    0.3054   -1.0216 H   0  0  0  0  0  0  0  0  0  0  0  0
    2.7765   -1.0790    0.0877 H   0  0  0  0  0  0  0  0  0  0  0  0
    2.2803    1.3463    1.6961 H   0  0  0  0  0  0  0  0  0  0  0  0
    4.6391    1.6216    2.0398 H   0  0  0  0  0  0  0  0  0  0  0  0
    5.1595    0.5862   -0.6717 H   0  0  0  0  0  0  0  0  0  0  0  0
    5.1595   -0.7988    0.4379 H   0  0  0  0  0  0  0  0  0  0  0  0
    6.8880    0.3247    1.8350 H   0  0  0  0  0  0  0  0  0  0  0  0
    6.8880    1.7046    0.7294 H   0  0  0  0  0  0  0  0  0  0  0  0
    7.5492    0.1914   -1.1564 H   0  0  0  0  0  0  0  0  0  0  0  0
    7.5492   -1.1857   -0.0531 H   0  0  0  0  0  0  0  0  0  0  0  0
    9.3055   -0.0648    1.3427 H   0  0  0  0  0  0  0  0  0  0  0  0
    9.3055    1.3091    0.2420 H   0  0  0  0  0  0  0  0  0  0  0  0
    9.9923   -0.1866   -1.6439 H   0  0  0  0  0  0  0  0  0  0  0  0
    9.9923   -1.5791   -0.5282 H   0  0  0  0  0  0  0  0  0  0  0  0
   11.6838    0.5066    0.6481 H   0  0  0  0  0  0  0  0  0  0  0  0
  1  2  1  0  0  0  0
  1 12  1  0  0  0  0
  1 13  1  0  0  0  0
  1 14  1  0  0  0  0
  2  3  1  0  0  0  0
  2 15  1  0  0  0  0
  2 16  1  0  0  0  0
  3  4  2  0  0  0  0
  3 17  1  0  0  0  0
  4  5  1  0  0  0  0
  4 18  1  0  0  0  0
  5  6  1  0  0  0  0
  5 19  1  0  0  0  0
  5 20  1  0  0  0  0
  6  7  1  0  0  0  0
  6 21  1  0  0  0  0
  6 22  1  0  0  0  0
  7  8  1  0  0  0  0
  7 23  1  0  0  0  0
  7 24  1  0  0  0  0
  8  9  1  0  0  0  0
  8 25  1  0  0  0  0
  8 26  1  0  0  0  0
  9 10  1  0  0  0  0
  9 27  1  0  0  0  0
  9 28  1  0  0  0  0
 10 11  2  0  0  0  0
 10 29  1  0  0  0  0
M  END
$$$$
