
 OpenBabel07202215583D

 27 27  0  0  0  0  0  0  0  0999 V2000
    0.9035   -0.0578    0.0069 C   0  0  0  0  0  0  0  0  0  0  0  0
    2.4218   -0.0625    0.0020 C   0  0  0  0  0  0  0  0  0  0  0  0
    2.9730    0.6060   -1.2534 C   0  0  0  0  0  0  0  0  0  0  0  0
    4.4913    0.5797   -1.2808 C   0  0  0  0  0  0  0  0  0  0  0  0
    5.1792    0.0428   -0.4125 O   0  0  0  0  0  0  0  0  0  0  0  0
    5.1682    1.2321   -2.4250 C   0  0  0  0  0  0  0  0  0  0  0  0
    6.2750    0.6268   -3.0273 C   0  0  0  0  0  0  0  0  0  0  0  0
    6.9582    1.2968   -4.0498 C   0  0  0  0  0  0  0  0  0  0  0  0
    6.5056    2.5378   -4.5126 C   0  0  0  0  0  0  0  0  0  0  0  0
    5.4081    3.1364   -3.8941 C   0  0  0  0  0  0  0  0  0  0  0  0
    4.7430    2.4896   -2.8533 C   0  0  0  0  0  0  0  0  0  0  0  0
    7.1948    3.0704   -5.5690 O   0  0  0  0  0  0  0  0  0  0  0  0
    6.6549    4.2644   -6.1327 C   0  0  0  0  0  0  0  0  0  0  0  0
    0.5270   -0.5413    0.9132 H   0  0  0  0  0  0  0  0  0  0  0  0
    0.5097   -0.5989   -0.8591 H   0  0  0  0  0  0  0  0  0  0  0  0
    0.5151    0.9654   -0.0210 H   0  0  0  0  0  0  0  0  0  0  0  0
    2.7841   -1.0949    0.0669 H   0  0  0  0  0  0  0  0  0  0  0  0
    2.7894    0.4620    0.8924 H   0  0  0  0  0  0  0  0  0  0  0  0
    2.6164    1.6404   -1.2815 H   0  0  0  0  0  0  0  0  0  0  0  0
    2.6070    0.0846   -2.1458 H   0  0  0  0  0  0  0  0  0  0  0  0
    6.6062   -0.3598   -2.7083 H   0  0  0  0  0  0  0  0  0  0  0  0
    7.8507    0.8500   -4.4833 H   0  0  0  0  0  0  0  0  0  0  0  0
    5.0513    4.1180   -4.1851 H   0  0  0  0  0  0  0  0  0  0  0  0
    3.9144    2.9989   -2.3728 H   0  0  0  0  0  0  0  0  0  0  0  0
    7.2404    4.5223   -7.0197 H   0  0  0  0  0  0  0  0  0  0  0  0
    6.7375    5.0955   -5.4243 H   0  0  0  0  0  0  0  0  0  0  0  0
    5.6154    4.1261   -6.4541 H   0  0  0  0  0  0  0  0  0  0  0  0
  1  2  1  0  0  0  0
  1 14  1  0  0  0  0
  1 15  1  0  0  0  0
  1 16  1  0  0  0  0
  2  3  1  0  0  0  0
  2 17  1  0  0  0  0
  2 18  1  0  0  0  0
  3  4  1  0  0  0  0
  3 19  1  0  0  0  0
  3 20  1  0  0  0  0
  4  5  2  0  0  0  0
  4  6  1  0  0  0  0
  6  7  2  0  0  0  0
  6 11  1  0  0  0  0
  7  8  1  0  0  0  0
  7 21  1  0  0  0  0
  8  9  2  0  0  0  0
  8 22  1  0  0  0  0
  9 10  1  0  0  0  0
  9 12  1  0  0  0  0
 10 11  2  0  0  0  0
 10 23  1  0  0  0  0
 11 24  1  0  0  0  0
 12 13  1  0  0  0  0
 13 25  1  0  0  0  0
 13 26  1  0  0  0  0
 13 27  1  0  0  0  0
M  END
$$$$
