
 OpenBabel07222214433D

 34 34  0  0  0  0  0  0  0  0999 V2000
    1.0911   -0.0222   -0.0842 C   0  0  0  0  0  0  0  0  0  0  0  0
    2.5792    0.1224   -0.0683 C   0  0  0  0  0  0  0  0  0  0  0  0
    3.1175    1.2132    0.0969 O   0  0  0  0  0  0  0  0  0  0  0  0
    3.2216   -1.0656   -0.2516 O   0  0  0  0  0  0  0  0  0  0  0  0
    4.6852   -1.0983   -0.2443 C   0  0  0  0  0  0  0  0  0  0  0  0
    5.2299   -0.1929   -1.3648 C   0  0  0  0  0  0  0  0  0  0  0  0
    5.2165   -0.6223    1.1219 C   0  0  0  0  0  0  0  0  0  0  0  0
    5.1830   -2.5841   -0.4474 C   0  0  0  0  0  0  0  0  0  0  0  0
    4.1871   -3.6362    0.0616 C   0  0  0  0  0  0  0  0  0  0  0  0
    4.7352   -5.0582   -0.0829 C   0  0  0  0  0  0  0  0  0  0  0  0
    5.4645   -5.3237   -1.3719 C   0  0  0  0  0  0  0  0  0  0  0  0
    5.8436   -4.3352   -2.1946 C   0  0  0  0  0  0  0  0  0  0  0  0
    5.5662   -2.8975   -1.9107 C   0  0  0  0  0  0  0  0  0  0  0  0
    5.7503   -6.7568   -1.6917 C   0  0  0  0  0  0  0  0  0  0  0  0
    0.6576    0.9770    0.0456 H   0  0  0  0  0  0  0  0  0  0  0  0
    0.7530   -0.6451    0.7462 H   0  0  0  0  0  0  0  0  0  0  0  0
    0.7494   -0.4131   -1.0444 H   0  0  0  0  0  0  0  0  0  0  0  0
    4.9419    0.8516   -1.2520 H   0  0  0  0  0  0  0  0  0  0  0  0
    4.8263   -0.4894   -2.3395 H   0  0  0  0  0  0  0  0  0  0  0  0
    6.3228   -0.2266   -1.3995 H   0  0  0  0  0  0  0  0  0  0  0  0
    4.9204    0.4041    1.3482 H   0  0  0  0  0  0  0  0  0  0  0  0
    6.3116   -0.6485    1.1451 H   0  0  0  0  0  0  0  0  0  0  0  0
    4.8336   -1.2463    1.9364 H   0  0  0  0  0  0  0  0  0  0  0  0
    6.1101   -2.7128    0.1350 H   0  0  0  0  0  0  0  0  0  0  0  0
    3.2496   -3.5630   -0.5036 H   0  0  0  0  0  0  0  0  0  0  0  0
    3.9427   -3.4599    1.1157 H   0  0  0  0  0  0  0  0  0  0  0  0
    3.8958   -5.7563    0.0134 H   0  0  0  0  0  0  0  0  0  0  0  0
    5.4302   -5.2621    0.7401 H   0  0  0  0  0  0  0  0  0  0  0  0
    6.3723   -4.5495   -3.1214 H   0  0  0  0  0  0  0  0  0  0  0  0
    4.7643   -2.5879   -2.5883 H   0  0  0  0  0  0  0  0  0  0  0  0
    6.4724   -2.3351   -2.1683 H   0  0  0  0  0  0  0  0  0  0  0  0
    5.3324   -7.4133   -0.9223 H   0  0  0  0  0  0  0  0  0  0  0  0
    6.8288   -6.9338   -1.7323 H   0  0  0  0  0  0  0  0  0  0  0  0
    5.2963   -7.0369   -2.6475 H   0  0  0  0  0  0  0  0  0  0  0  0
  1  2  1  0  0  0  0
  1 15  1  0  0  0  0
  1 16  1  0  0  0  0
  1 17  1  0  0  0  0
  2  3  2  0  0  0  0
  2  4  1  0  0  0  0
  4  5  1  0  0  0  0
  5  6  1  0  0  0  0
  5  7  1  0  0  0  0
  5  8  1  0  0  0  0
  6 18  1  0  0  0  0
  6 19  1  0  0  0  0
  6 20  1  0  0  0  0
  7 21  1  0  0  0  0
  7 22  1  0  0  0  0
  7 23  1  0  0  0  0
  8  9  1  0  0  0  0
  8 13  1  0  0  0  0
  8 24  1  0  0  0  0
  9 10  1  0  0  0  0
  9 25  1  0  0  0  0
  9 26  1  0  0  0  0
 10 11  1  0  0  0  0
 10 27  1  0  0  0  0
 10 28  1  0  0  0  0
 11 12  2  0  0  0  0
 11 14  1  0  0  0  0
 12 13  1  0  0  0  0
 12 29  1  0  0  0  0
 13 30  1  0  0  0  0
 13 31  1  0  0  0  0
 14 32  1  0  0  0  0
 14 33  1  0  0  0  0
 14 34  1  0  0  0  0
M  END
$$$$
