
 OpenBabel07202215583D

 33 32  0  0  0  0  0  0  0  0999 V2000
    0.8774   -0.0610    0.0406 C   0  0  0  0  0  0  0  0  0  0  0  0
    2.3948   -0.0521    0.0352 C   0  0  0  0  0  0  0  0  0  0  0  0
    2.9237    1.1696   -0.7063 C   0  0  0  0  0  0  0  0  0  0  0  0
    4.4465    1.1812   -0.7133 C   0  0  0  0  0  0  0  0  0  0  0  0
    4.9646    2.4052   -1.4562 C   0  0  0  0  0  0  0  0  0  0  0  0
    6.4862    2.4177   -1.4637 C   0  0  0  0  0  0  0  0  0  0  0  0
    7.0046    3.6416   -2.2064 C   0  0  0  0  0  0  0  0  0  0  0  0
    8.5272    3.6525   -2.2129 C   0  0  0  0  0  0  0  0  0  0  0  0
    9.0562    4.8721   -2.9542 C   0  0  0  0  0  0  0  0  0  0  0  0
   10.5761    4.8822   -2.9626 C   0  0  0  0  0  0  0  0  0  0  0  0
   11.0437    6.0313   -3.6542 O   0  0  0  0  0  0  0  0  0  0  0  0
    0.5052   -0.9399    0.5741 H   0  0  0  0  0  0  0  0  0  0  0  0
    0.4855   -0.0872   -0.9812 H   0  0  0  0  0  0  0  0  0  0  0  0
    0.4855    0.8334    0.5355 H   0  0  0  0  0  0  0  0  0  0  0  0
    2.7644   -0.9672   -0.4421 H   0  0  0  0  0  0  0  0  0  0  0  0
    2.7644   -0.0511    1.0673 H   0  0  0  0  0  0  0  0  0  0  0  0
    2.5509    2.0843   -0.2292 H   0  0  0  0  0  0  0  0  0  0  0  0
    2.5509    1.1685   -1.7380 H   0  0  0  0  0  0  0  0  0  0  0  0
    4.8239    0.2698   -1.1930 H   0  0  0  0  0  0  0  0  0  0  0  0
    4.8239    1.1860    0.3166 H   0  0  0  0  0  0  0  0  0  0  0  0
    4.5885    3.3178   -0.9775 H   0  0  0  0  0  0  0  0  0  0  0  0
    4.5886    2.4017   -2.4868 H   0  0  0  0  0  0  0  0  0  0  0  0
    6.8622    1.5052   -1.9425 H   0  0  0  0  0  0  0  0  0  0  0  0
    6.8622    2.4212   -0.4332 H   0  0  0  0  0  0  0  0  0  0  0  0
    6.6274    4.5532   -1.7270 H   0  0  0  0  0  0  0  0  0  0  0  0
    6.6274    3.6370   -3.2364 H   0  0  0  0  0  0  0  0  0  0  0  0
    8.8997    2.7377   -2.6901 H   0  0  0  0  0  0  0  0  0  0  0  0
    8.8999    3.6540   -1.1813 H   0  0  0  0  0  0  0  0  0  0  0  0
    8.6841    5.7932   -2.4884 H   0  0  0  0  0  0  0  0  0  0  0  0
    8.6795    4.8828   -3.9846 H   0  0  0  0  0  0  0  0  0  0  0  0
   10.9746    3.9905   -3.4573 H   0  0  0  0  0  0  0  0  0  0  0  0
   10.9688    4.9131   -1.9419 H   0  0  0  0  0  0  0  0  0  0  0  0
   10.6927    5.9895   -4.5575 H   0  0  0  0  0  0  0  0  0  0  0  0
  1  2  1  0  0  0  0
  1 12  1  0  0  0  0
  1 13  1  0  0  0  0
  1 14  1  0  0  0  0
  2  3  1  0  0  0  0
  2 15  1  0  0  0  0
  2 16  1  0  0  0  0
  3  4  1  0  0  0  0
  3 17  1  0  0  0  0
  3 18  1  0  0  0  0
  4  5  1  0  0  0  0
  4 19  1  0  0  0  0
  4 20  1  0  0  0  0
  5  6  1  0  0  0  0
  5 21  1  0  0  0  0
  5 22  1  0  0  0  0
  6  7  1  0  0  0  0
  6 23  1  0  0  0  0
  6 24  1  0  0  0  0
  7  8  1  0  0  0  0
  7 25  1  0  0  0  0
  7 26  1  0  0  0  0
  8  9  1  0  0  0  0
  8 27  1  0  0  0  0
  8 28  1  0  0  0  0
  9 10  1  0  0  0  0
  9 29  1  0  0  0  0
  9 30  1  0  0  0  0
 10 11  1  0  0  0  0
 10 31  1  0  0  0  0
 10 32  1  0  0  0  0
 11 33  1  0  0  0  0
M  END
$$$$
