
 OpenBabel07122215493D

 25 25  0  0  1  0  0  0  0  0999 V2000
    1.8970   -1.4857    0.0010 C   0  0  0  0  0  0  0  0  0  0  0  0
    0.5698   -0.8002    0.0252 C   0  0  0  0  0  0  0  0  0  0  0  0
   -0.6033   -1.4531    0.0297 C   0  0  0  0  0  0  0  0  0  0  0  0
   -1.9474   -0.7919    0.0554 C   0  0  0  0  0  0  0  0  0  0  0  0
   -1.8873    0.7021   -0.2932 C   0  0  2  0  0  0  0  0  0  0  0  0
   -0.7335    1.3832    0.4429 C   0  0  0  0  0  0  0  0  0  0  0  0
    0.5693    0.6964    0.0797 C   0  0  0  0  0  0  0  0  0  0  0  0
    1.6061    1.3265   -0.1027 O   0  0  0  0  0  0  0  0  0  0  0  0
   -3.2546    1.3346   -0.0834 C   0  0  0  0  0  0  0  0  0  0  0  0
   -4.0688    1.4946   -1.1404 C   0  0  0  0  0  0  0  0  0  0  0  0
   -3.7136    1.6905    1.3063 C   0  0  0  0  0  0  0  0  0  0  0  0
    1.7861   -2.5753   -0.0260 H   0  0  0  0  0  0  0  0  0  0  0  0
    2.4679   -1.2356    0.9012 H   0  0  0  0  0  0  0  0  0  0  0  0
    2.4750   -1.1872   -0.8784 H   0  0  0  0  0  0  0  0  0  0  0  0
   -0.6129   -2.5407    0.0117 H   0  0  0  0  0  0  0  0  0  0  0  0
   -2.3827   -0.9445    1.0495 H   0  0  0  0  0  0  0  0  0  0  0  0
   -2.6027   -1.2991   -0.6642 H   0  0  0  0  0  0  0  0  0  0  0  0
   -1.6431    0.7721   -1.3659 H   0  0  0  0  0  0  0  0  0  0  0  0
   -0.8473    1.3283    1.5312 H   0  0  0  0  0  0  0  0  0  0  0  0
   -0.6641    2.4390    0.1559 H   0  0  0  0  0  0  0  0  0  0  0  0
   -5.0665    1.9084   -1.0419 H   0  0  0  0  0  0  0  0  0  0  0  0
   -3.7656    1.1714   -2.1327 H   0  0  0  0  0  0  0  0  0  0  0  0
   -4.6827    2.2027    1.2893 H   0  0  0  0  0  0  0  0  0  0  0  0
   -3.0091    2.3564    1.8132 H   0  0  0  0  0  0  0  0  0  0  0  0
   -3.8367    0.7860    1.9106 H   0  0  0  0  0  0  0  0  0  0  0  0
  1  2  1  0  0  0  0
  1 12  1  0  0  0  0
  1 13  1  0  0  0  0
  1 14  1  0  0  0  0
  2  3  2  0  0  0  0
  2  7  1  0  0  0  0
  3  4  1  0  0  0  0
  3 15  1  0  0  0  0
  4  5  1  0  0  0  0
  4 16  1  0  0  0  0
  4 17  1  0  0  0  0
  5  6  1  0  0  0  0
  5  9  1  0  0  0  0
  5 18  1  6  0  0  0
  6  7  1  0  0  0  0
  6 19  1  0  0  0  0
  6 20  1  0  0  0  0
  7  8  2  0  0  0  0
  9 10  2  0  0  0  0
  9 11  1  0  0  0  0
 10 21  1  0  0  0  0
 10 22  1  0  0  0  0
 11 23  1  0  0  0  0
 11 24  1  0  0  0  0
 11 25  1  0  0  0  0
M  END
$$$$
