
 OpenBabel07222214443D

 18 18  0  0  0  0  0  0  0  0999 V2000
    0.9667    0.0471   -0.2271 C   0  0  0  0  0  0  0  0  0  0  0  0
    2.3772   -0.0065   -0.0303 O   0  0  0  0  0  0  0  0  0  0  0  0
    2.9555    1.0762    0.5790 C   0  0  0  0  0  0  0  0  0  0  0  0
    2.5728    1.6011    1.8163 C   0  0  0  0  0  0  0  0  0  0  0  0
    3.3174    2.6147    2.4248 C   0  0  0  0  0  0  0  0  0  0  0  0
    4.4613    3.1146    1.8067 C   0  0  0  0  0  0  0  0  0  0  0  0
    4.8415    2.6035    0.5725 C   0  0  0  0  0  0  0  0  0  0  0  0
    4.1060    1.5848   -0.0386 C   0  0  0  0  0  0  0  0  0  0  0  0
    5.9498    3.0731   -0.0701 O   0  0  0  0  0  0  0  0  0  0  0  0
    1.5158    1.1393    2.5455 O   0  0  0  0  0  0  0  0  0  0  0  0
    0.6940   -0.8137   -0.8476 H   0  0  0  0  0  0  0  0  0  0  0  0
    0.6573    0.9578   -0.7472 H   0  0  0  0  0  0  0  0  0  0  0  0
    0.4088   -0.0730    0.7028 H   0  0  0  0  0  0  0  0  0  0  0  0
    3.0196    2.9848    3.4014 H   0  0  0  0  0  0  0  0  0  0  0  0
    5.0414    3.8839    2.3080 H   0  0  0  0  0  0  0  0  0  0  0  0
    4.4408    1.1864   -0.9919 H   0  0  0  0  0  0  0  0  0  0  0  0
    6.3416    3.7851    0.4644 H   0  0  0  0  0  0  0  0  0  0  0  0
    1.3919    0.2079    2.3022 H   0  0  0  0  0  0  0  0  0  0  0  0
  1  2  1  0  0  0  0
  1 11  1  0  0  0  0
  1 12  1  0  0  0  0
  1 13  1  0  0  0  0
  2  3  1  0  0  0  0
  3  4  2  0  0  0  0
  3  8  1  0  0  0  0
  4  5  1  0  0  0  0
  4 10  1  0  0  0  0
  5  6  2  0  0  0  0
  5 14  1  0  0  0  0
  6  7  1  0  0  0  0
  6 15  1  0  0  0  0
  7  8  2  0  0  0  0
  7  9  1  0  0  0  0
  8 16  1  0  0  0  0
  9 17  1  0  0  0  0
 10 18  1  0  0  0  0
M  END
$$$$
