
 OpenBabel07202215583D

 16 16  0  0  0  0  0  0  0  0999 V2000
    0.9045    0.0189    0.1006 O   0  0  0  0  0  0  0  0  0  0  0  0
    2.3243    0.0130    0.0791 C   0  0  0  0  0  0  0  0  0  0  0  0
    2.8022   -0.7627   -1.1156 C   0  0  0  0  0  0  0  0  0  0  0  0
    2.4832   -2.1234   -1.2400 C   0  0  0  0  0  0  0  0  0  0  0  0
    2.9576   -2.8673   -2.3208 C   0  0  0  0  0  0  0  0  0  0  0  0
    3.7182   -2.2503   -3.3099 C   0  0  0  0  0  0  0  0  0  0  0  0
    4.0316   -0.8951   -3.2051 C   0  0  0  0  0  0  0  0  0  0  0  0
    3.5850   -0.1572   -2.1064 C   0  0  0  0  0  0  0  0  0  0  0  0
    0.6389    0.5131    0.8927 H   0  0  0  0  0  0  0  0  0  0  0  0
    2.6960   -0.4560    0.9965 H   0  0  0  0  0  0  0  0  0  0  0  0
    2.6782    1.0488    0.0526 H   0  0  0  0  0  0  0  0  0  0  0  0
    1.8534   -2.6012   -0.4936 H   0  0  0  0  0  0  0  0  0  0  0  0
    2.7267   -3.9272   -2.3900 H   0  0  0  0  0  0  0  0  0  0  0  0
    4.0621   -2.8230   -4.1670 H   0  0  0  0  0  0  0  0  0  0  0  0
    4.6239   -0.4142   -3.9781 H   0  0  0  0  0  0  0  0  0  0  0  0
    3.8469    0.8963   -2.0356 H   0  0  0  0  0  0  0  0  0  0  0  0
  1  2  1  0  0  0  0
  1  9  1  0  0  0  0
  2  3  1  0  0  0  0
  2 10  1  0  0  0  0
  2 11  1  0  0  0  0
  3  4  1  0  0  0  0
  3  8  2  0  0  0  0
  4  5  2  0  0  0  0
  4 12  1  0  0  0  0
  5  6  1  0  0  0  0
  5 13  1  0  0  0  0
  6  7  2  0  0  0  0
  6 14  1  0  0  0  0
  7  8  1  0  0  0  0
  7 15  1  0  0  0  0
  8 16  1  0  0  0  0
M  END
$$$$
