
 OpenBabel07202215583D

 30 29  0  0  0  0  0  0  0  0999 V2000
    0.9290   -0.0755    0.0913 C   0  0  0  0  0  0  0  0  0  0  0  0
    2.4418   -0.0639    0.0710 C   0  0  0  0  0  0  0  0  0  0  0  0
    2.9258    0.6817   -1.1652 C   0  0  0  0  0  0  0  0  0  0  0  0
    4.4307    0.6974   -1.1979 C   0  0  0  0  0  0  0  0  0  0  0  0
    4.9630    1.4428   -2.4241 C   0  0  0  0  0  0  0  0  0  0  0  0
    6.4646    1.4077   -2.3292 C   0  0  0  0  0  0  0  0  0  0  0  0
    6.9559    0.7886   -1.3829 O   0  0  0  0  0  0  0  0  0  0  0  0
    7.3059    2.0680   -3.3981 C   0  0  0  0  0  0  0  0  0  0  0  0
    6.9455    3.5526   -3.5220 C   0  0  0  0  0  0  0  0  0  0  0  0
    8.8245    1.9458   -3.2582 C   0  0  0  0  0  0  0  0  0  0  0  0
    9.5131    1.2508   -2.1029 C   0  0  0  0  0  0  0  0  0  0  0  0
    9.5453    2.4491   -4.1329 O   0  0  0  0  0  0  0  0  0  0  0  0
    0.5629   -0.6077    0.9718 H   0  0  0  0  0  0  0  0  0  0  0  0
    0.5400   -0.5707   -0.8041 H   0  0  0  0  0  0  0  0  0  0  0  0
    0.5405    0.9476    0.1138 H   0  0  0  0  0  0  0  0  0  0  0  0
    2.8233   -1.0925    0.0680 H   0  0  0  0  0  0  0  0  0  0  0  0
    2.8239    0.4179    0.9796 H   0  0  0  0  0  0  0  0  0  0  0  0
    2.5538    1.7120   -1.1551 H   0  0  0  0  0  0  0  0  0  0  0  0
    2.5507    0.1959   -2.0724 H   0  0  0  0  0  0  0  0  0  0  0  0
    4.8099   -0.3349   -1.1920 H   0  0  0  0  0  0  0  0  0  0  0  0
    4.8109    1.1728   -0.2813 H   0  0  0  0  0  0  0  0  0  0  0  0
    4.6111    2.4773   -2.4066 H   0  0  0  0  0  0  0  0  0  0  0  0
    4.6429    0.9527   -3.3486 H   0  0  0  0  0  0  0  0  0  0  0  0
    7.0533    1.5663   -4.3441 H   0  0  0  0  0  0  0  0  0  0  0  0
    7.1817    4.0856   -2.5948 H   0  0  0  0  0  0  0  0  0  0  0  0
    5.8816    3.7023   -3.7327 H   0  0  0  0  0  0  0  0  0  0  0  0
    7.4979    4.0392   -4.3345 H   0  0  0  0  0  0  0  0  0  0  0  0
    8.9007    0.7943   -1.3425 H   0  0  0  0  0  0  0  0  0  0  0  0
   10.1228    1.9813   -1.5681 H   0  0  0  0  0  0  0  0  0  0  0  0
   10.1228    0.4355   -2.4975 H   0  0  0  0  0  0  0  0  0  0  0  0
  1  2  1  0  0  0  0
  1 13  1  0  0  0  0
  1 14  1  0  0  0  0
  1 15  1  0  0  0  0
  2  3  1  0  0  0  0
  2 16  1  0  0  0  0
  2 17  1  0  0  0  0
  3  4  1  0  0  0  0
  3 18  1  0  0  0  0
  3 19  1  0  0  0  0
  4  5  1  0  0  0  0
  4 20  1  0  0  0  0
  4 21  1  0  0  0  0
  5  6  1  0  0  0  0
  5 22  1  0  0  0  0
  5 23  1  0  0  0  0
  6  7  2  0  0  0  0
  6  8  1  0  0  0  0
  8  9  1  0  0  0  0
  8 10  1  0  0  0  0
  8 24  1  0  0  0  0
  9 25  1  0  0  0  0
  9 26  1  0  0  0  0
  9 27  1  0  0  0  0
 10 11  1  0  0  0  0
 10 12  2  0  0  0  0
 11 28  1  0  0  0  0
 11 29  1  0  0  0  0
 11 30  1  0  0  0  0
M  END
$$$$
