
 OpenBabel07202215583D

 19 19  0  0  0  0  0  0  0  0999 V2000
    0.9240    0.0768   -0.0221 C   0  0  0  0  0  0  0  0  0  0  0  0
    2.2646    0.0710   -0.0626 C   0  0  0  0  0  0  0  0  0  0  0  0
    3.0493    0.1079   -1.3460 C   0  0  0  0  0  0  0  0  0  0  0  0
    4.5354    0.1140   -1.0815 C   0  0  0  0  0  0  0  0  0  0  0  0
    5.2308   -1.0892   -0.8982 C   0  0  0  0  0  0  0  0  0  0  0  0
    6.5616   -1.0740   -0.4813 C   0  0  0  0  0  0  0  0  0  0  0  0
    7.2245    0.1400   -0.3059 C   0  0  0  0  0  0  0  0  0  0  0  0
    6.5515    1.3411   -0.5219 C   0  0  0  0  0  0  0  0  0  0  0  0
    5.2094    1.3292   -0.8979 C   0  0  0  0  0  0  0  0  0  0  0  0
    0.3981    0.0513    0.9261 H   0  0  0  0  0  0  0  0  0  0  0  0
    0.3354    0.1076   -0.9318 H   0  0  0  0  0  0  0  0  0  0  0  0
    2.8166    0.0423    0.8754 H   0  0  0  0  0  0  0  0  0  0  0  0
    2.7811    1.0052   -1.9178 H   0  0  0  0  0  0  0  0  0  0  0  0
    2.7920   -0.7573   -1.9692 H   0  0  0  0  0  0  0  0  0  0  0  0
    4.7292   -2.0423   -1.0512 H   0  0  0  0  0  0  0  0  0  0  0  0
    7.0751   -2.0089   -0.2736 H   0  0  0  0  0  0  0  0  0  0  0  0
    8.2651    0.1499    0.0058 H   0  0  0  0  0  0  0  0  0  0  0  0
    7.0628    2.2880   -0.3727 H   0  0  0  0  0  0  0  0  0  0  0  0
    4.6810    2.2715   -1.0250 H   0  0  0  0  0  0  0  0  0  0  0  0
  1  2  2  0  0  0  0
  1 10  1  0  0  0  0
  1 11  1  0  0  0  0
  2  3  1  0  0  0  0
  2 12  1  0  0  0  0
  3  4  1  0  0  0  0
  3 13  1  0  0  0  0
  3 14  1  0  0  0  0
  4  5  2  0  0  0  0
  4  9  1  0  0  0  0
  5  6  1  0  0  0  0
  5 15  1  0  0  0  0
  6  7  2  0  0  0  0
  6 16  1  0  0  0  0
  7  8  1  0  0  0  0
  7 17  1  0  0  0  0
  8  9  2  0  0  0  0
  8 18  1  0  0  0  0
  9 19  1  0  0  0  0
M  END
$$$$
