
 OpenBabel07222214433D

 17 16  0  0  0  0  0  0  0  0999 V2000
    0.9245    0.0200   -0.0428 C   0  0  0  0  0  0  0  0  0  0  0  0
    2.4457    0.0229   -0.0387 C   0  0  0  0  0  0  0  0  0  0  0  0
    3.0227    0.8313    1.1259 C   0  0  0  0  0  0  0  0  0  0  0  0
    4.5463    0.8263    1.1186 C   0  0  0  0  0  0  0  0  0  0  0  0
    5.2320    0.2467    0.2837 O   0  0  0  0  0  0  0  0  0  0  0  0
    5.2745    1.7441    2.4406 S   0  0  0  0  0  0  0  0  0  0  0  0
    7.0406    1.5119    2.1061 C   0  0  0  0  0  0  0  0  0  0  0  0
    0.5497   -0.5669   -0.8883 H   0  0  0  0  0  0  0  0  0  0  0  0
    0.5284    1.0361   -0.1361 H   0  0  0  0  0  0  0  0  0  0  0  0
    0.5284   -0.4225    0.8766 H   0  0  0  0  0  0  0  0  0  0  0  0
    2.8043    0.4345   -0.9896 H   0  0  0  0  0  0  0  0  0  0  0  0
    2.8043   -1.0120    0.0146 H   0  0  0  0  0  0  0  0  0  0  0  0
    2.6687    0.4065    2.0730 H   0  0  0  0  0  0  0  0  0  0  0  0
    2.6687    1.8673    1.0589 H   0  0  0  0  0  0  0  0  0  0  0  0
    7.6138    2.0442    2.8729 H   0  0  0  0  0  0  0  0  0  0  0  0
    7.3240    1.9239    1.1332 H   0  0  0  0  0  0  0  0  0  0  0  0
    7.3240    0.4563    2.1521 H   0  0  0  0  0  0  0  0  0  0  0  0
  1  2  1  0  0  0  0
  1  8  1  0  0  0  0
  1  9  1  0  0  0  0
  1 10  1  0  0  0  0
  2  3  1  0  0  0  0
  2 11  1  0  0  0  0
  2 12  1  0  0  0  0
  3  4  1  0  0  0  0
  3 13  1  0  0  0  0
  3 14  1  0  0  0  0
  4  5  2  0  0  0  0
  4  6  1  0  0  0  0
  6  7  1  0  0  0  0
  7 15  1  0  0  0  0
  7 16  1  0  0  0  0
  7 17  1  0  0  0  0
M  END
$$$$
