
 OpenBabel07222214443D

 27 27  0  0  0  0  0  0  0  0999 V2000
    1.0050    0.0884    0.0631 C   0  0  0  0  0  0  0  0  0  0  0  0
    2.4962    0.1173    0.0648 C   0  0  0  0  0  0  0  0  0  0  0  0
    3.2278    0.6176   -0.9505 C   0  0  0  0  0  0  0  0  0  0  0  0
    4.6955    0.5657   -0.9807 C   0  0  0  0  0  0  0  0  0  0  0  0
    5.4533    1.6203   -1.5109 C   0  0  0  0  0  0  0  0  0  0  0  0
    6.8502    1.5047   -1.6564 C   0  0  0  0  0  0  0  0  0  0  0  0
    7.5055    0.3604   -1.1619 C   0  0  0  0  0  0  0  0  0  0  0  0
    6.7459   -0.6942   -0.6557 C   0  0  0  0  0  0  0  0  0  0  0  0
    5.3580   -0.5978   -0.5814 C   0  0  0  0  0  0  0  0  0  0  0  0
    8.8704    0.3449   -1.1837 O   0  0  0  0  0  0  0  0  0  0  0  0
    9.5638   -0.7665   -0.6503 C   0  0  0  0  0  0  0  0  0  0  0  0
    7.4402    2.5631   -2.3144 O   0  0  0  0  0  0  0  0  0  0  0  0
    8.7965    2.3907   -2.7282 C   0  0  0  0  0  0  0  0  0  0  0  0
    0.6418   -0.3468    1.0006 H   0  0  0  0  0  0  0  0  0  0  0  0
    0.6267   -0.5307   -0.7566 H   0  0  0  0  0  0  0  0  0  0  0  0
    0.5945    1.0982   -0.0199 H   0  0  0  0  0  0  0  0  0  0  0  0
    2.9843   -0.3009    0.9408 H   0  0  0  0  0  0  0  0  0  0  0  0
    2.7397    1.0405   -1.8236 H   0  0  0  0  0  0  0  0  0  0  0  0
    4.9629    2.5416   -1.8204 H   0  0  0  0  0  0  0  0  0  0  0  0
    7.2040   -1.6176   -0.3218 H   0  0  0  0  0  0  0  0  0  0  0  0
    4.7975   -1.4515   -0.2083 H   0  0  0  0  0  0  0  0  0  0  0  0
   10.6328   -0.5490   -0.7334 H   0  0  0  0  0  0  0  0  0  0  0  0
    9.3573   -1.6660   -1.2366 H   0  0  0  0  0  0  0  0  0  0  0  0
    9.3317   -0.9077    0.4092 H   0  0  0  0  0  0  0  0  0  0  0  0
    9.0771    3.2105   -3.3943 H   0  0  0  0  0  0  0  0  0  0  0  0
    8.9403    1.4607   -3.2944 H   0  0  0  0  0  0  0  0  0  0  0  0
    9.4645    2.4514   -1.8624 H   0  0  0  0  0  0  0  0  0  0  0  0
  1  2  1  0  0  0  0
  1 14  1  0  0  0  0
  1 15  1  0  0  0  0
  1 16  1  0  0  0  0
  2  3  2  0  0  0  0
  2 17  1  0  0  0  0
  3  4  1  0  0  0  0
  3 18  1  0  0  0  0
  4  5  2  0  0  0  0
  4  9  1  0  0  0  0
  5  6  1  0  0  0  0
  5 19  1  0  0  0  0
  6  7  2  0  0  0  0
  6 12  1  0  0  0  0
  7  8  1  0  0  0  0
  7 10  1  0  0  0  0
  8  9  2  0  0  0  0
  8 20  1  0  0  0  0
  9 21  1  0  0  0  0
 10 11  1  0  0  0  0
 11 22  1  0  0  0  0
 11 23  1  0  0  0  0
 11 24  1  0  0  0  0
 12 13  1  0  0  0  0
 13 25  1  0  0  0  0
 13 26  1  0  0  0  0
 13 27  1  0  0  0  0
M  END
$$$$
