
 OpenBabel07202215583D

 30 29  0  0  0  0  0  0  0  0999 V2000
    1.0154    0.0807    0.0632 C   0  0  0  0  0  0  0  0  0  0  0  0
    2.5338    0.0729    0.0654 C   0  0  0  0  0  0  0  0  0  0  0  0
    3.0683   -1.3011    0.4572 C   0  0  0  0  0  0  0  0  0  0  0  0
    4.5970   -1.3147    0.4611 C   0  0  0  0  0  0  0  0  0  0  0  0
    5.1206   -2.6934    0.8542 C   0  0  0  0  0  0  0  0  0  0  0  0
    6.6523   -2.7607    0.8734 C   0  0  0  0  0  0  0  0  0  0  0  0
    7.1147   -4.1503    1.2697 C   0  0  0  0  0  0  0  0  0  0  0  0
    6.3571   -5.0781    1.5342 O   0  0  0  0  0  0  0  0  0  0  0  0
    8.4777   -4.2419    1.2958 O   0  0  0  0  0  0  0  0  0  0  0  0
    8.9368   -5.5532    1.6697 C   0  0  0  0  0  0  0  0  0  0  0  0
   10.4390   -5.5920    1.6808 C   0  0  0  0  0  0  0  0  0  0  0  0
   11.1389   -6.6935    1.9949 C   0  0  0  0  0  0  0  0  0  0  0  0
    0.6407    1.0688   -0.2186 H   0  0  0  0  0  0  0  0  0  0  0  0
    0.6242   -0.1649    1.0557 H   0  0  0  0  0  0  0  0  0  0  0  0
    0.6242   -0.6514   -0.6505 H   0  0  0  0  0  0  0  0  0  0  0  0
    2.9010    0.8302    0.7677 H   0  0  0  0  0  0  0  0  0  0  0  0
    2.9010    0.3459   -0.9307 H   0  0  0  0  0  0  0  0  0  0  0  0
    2.6921   -2.0561   -0.2447 H   0  0  0  0  0  0  0  0  0  0  0  0
    2.6921   -1.5723    1.4517 H   0  0  0  0  0  0  0  0  0  0  0  0
    4.9682   -0.5606    1.1650 H   0  0  0  0  0  0  0  0  0  0  0  0
    4.9682   -1.0452   -0.5347 H   0  0  0  0  0  0  0  0  0  0  0  0
    4.7293   -3.4415    0.1527 H   0  0  0  0  0  0  0  0  0  0  0  0
    4.7293   -2.9589    1.8448 H   0  0  0  0  0  0  0  0  0  0  0  0
    7.0413   -2.0332    1.5941 H   0  0  0  0  0  0  0  0  0  0  0  0
    7.0413   -2.5227   -0.1226 H   0  0  0  0  0  0  0  0  0  0  0  0
    8.5662   -6.2859    0.9426 H   0  0  0  0  0  0  0  0  0  0  0  0
    8.5662   -5.7922    2.6738 H   0  0  0  0  0  0  0  0  0  0  0  0
   10.9754   -4.6834    1.4217 H   0  0  0  0  0  0  0  0  0  0  0  0
   10.6474   -7.6259    2.2607 H   0  0  0  0  0  0  0  0  0  0  0  0
   12.2254   -6.6922    1.9945 H   0  0  0  0  0  0  0  0  0  0  0  0
  1  2  1  0  0  0  0
  1 13  1  0  0  0  0
  1 14  1  0  0  0  0
  1 15  1  0  0  0  0
  2  3  1  0  0  0  0
  2 16  1  0  0  0  0
  2 17  1  0  0  0  0
  3  4  1  0  0  0  0
  3 18  1  0  0  0  0
  3 19  1  0  0  0  0
  4  5  1  0  0  0  0
  4 20  1  0  0  0  0
  4 21  1  0  0  0  0
  5  6  1  0  0  0  0
  5 22  1  0  0  0  0
  5 23  1  0  0  0  0
  6  7  1  0  0  0  0
  6 24  1  0  0  0  0
  6 25  1  0  0  0  0
  7  8  2  0  0  0  0
  7  9  1  0  0  0  0
  9 10  1  0  0  0  0
 10 11  1  0  0  0  0
 10 26  1  0  0  0  0
 10 27  1  0  0  0  0
 11 12  2  0  0  0  0
 11 28  1  0  0  0  0
 12 29  1  0  0  0  0
 12 30  1  0  0  0  0
M  END
$$$$
