
 OpenBabel07222214433D

 32 31  0  0  0  0  0  0  0  0999 V2000
    0.8894   -0.0427   -0.0069 C   0  0  0  0  0  0  0  0  0  0  0  0
    2.4068   -0.0334   -0.0102 C   0  0  0  0  0  0  0  0  0  0  0  0
    2.9317    1.3146   -0.4910 C   0  0  0  0  0  0  0  0  0  0  0  0
    4.4549    1.3343   -0.4980 C   0  0  0  0  0  0  0  0  0  0  0  0
    4.9740    2.6878   -0.9808 C   0  0  0  0  0  0  0  0  0  0  0  0
    6.4980    2.7012   -0.9856 C   0  0  0  0  0  0  0  0  0  0  0  0
    7.0736    4.0376   -1.4623 C   0  0  0  0  0  0  0  0  0  0  0  0
    8.5884    3.9873   -1.4443 C   0  0  0  0  0  0  0  0  0  0  0  0
    9.2437    3.0111   -1.0961 O   0  0  0  0  0  0  0  0  0  0  0  0
    9.1331    5.1667   -1.8650 O   0  0  0  0  0  0  0  0  0  0  0  0
   10.5721    5.1603   -1.8627 C   0  0  0  0  0  0  0  0  0  0  0  0
   11.0973    6.5020   -2.3413 C   0  0  0  0  0  0  0  0  0  0  0  0
    0.5155   -1.0104    0.3383 H   0  0  0  0  0  0  0  0  0  0  0  0
    0.4990    0.1387   -1.0134 H   0  0  0  0  0  0  0  0  0  0  0  0
    0.4990    0.7348    0.6576 H   0  0  0  0  0  0  0  0  0  0  0  0
    2.7765   -0.8334   -0.6623 H   0  0  0  0  0  0  0  0  0  0  0  0
    2.7765   -0.2402    1.0010 H   0  0  0  0  0  0  0  0  0  0  0  0
    2.5561    2.1121    0.1617 H   0  0  0  0  0  0  0  0  0  0  0  0
    2.5561    1.5190   -1.5011 H   0  0  0  0  0  0  0  0  0  0  0  0
    4.8312    0.5364   -1.1503 H   0  0  0  0  0  0  0  0  0  0  0  0
    4.8312    1.1293    0.5120 H   0  0  0  0  0  0  0  0  0  0  0  0
    4.5954    3.4813   -0.3257 H   0  0  0  0  0  0  0  0  0  0  0  0
    4.5954    2.8876   -1.9902 H   0  0  0  0  0  0  0  0  0  0  0  0
    6.8642    1.8929   -1.6316 H   0  0  0  0  0  0  0  0  0  0  0  0
    6.8642    2.4841    0.0261 H   0  0  0  0  0  0  0  0  0  0  0  0
    6.7316    4.8419   -0.8016 H   0  0  0  0  0  0  0  0  0  0  0  0
    6.7316    4.2423   -2.4828 H   0  0  0  0  0  0  0  0  0  0  0  0
   10.9376    4.3720   -2.5314 H   0  0  0  0  0  0  0  0  0  0  0  0
   10.9376    4.9731   -0.8461 H   0  0  0  0  0  0  0  0  0  0  0  0
   10.7454    6.7197   -3.3545 H   0  0  0  0  0  0  0  0  0  0  0  0
   12.1925    6.5104   -2.3443 H   0  0  0  0  0  0  0  0  0  0  0  0
   10.7454    7.3118   -1.6945 H   0  0  0  0  0  0  0  0  0  0  0  0
  1  2  1  0  0  0  0
  1 13  1  0  0  0  0
  1 14  1  0  0  0  0
  1 15  1  0  0  0  0
  2  3  1  0  0  0  0
  2 16  1  0  0  0  0
  2 17  1  0  0  0  0
  3  4  1  0  0  0  0
  3 18  1  0  0  0  0
  3 19  1  0  0  0  0
  4  5  1  0  0  0  0
  4 20  1  0  0  0  0
  4 21  1  0  0  0  0
  5  6  1  0  0  0  0
  5 22  1  0  0  0  0
  5 23  1  0  0  0  0
  6  7  1  0  0  0  0
  6 24  1  0  0  0  0
  6 25  1  0  0  0  0
  7  8  1  0  0  0  0
  7 26  1  0  0  0  0
  7 27  1  0  0  0  0
  8  9  2  0  0  0  0
  8 10  1  0  0  0  0
 10 11  1  0  0  0  0
 11 12  1  0  0  0  0
 11 28  1  0  0  0  0
 11 29  1  0  0  0  0
 12 30  1  0  0  0  0
 12 31  1  0  0  0  0
 12 32  1  0  0  0  0
M  END
$$$$
