
 OpenBabel07202215583D

 23 23  0  0  0  0  0  0  0  0999 V2000
    1.0053    0.0124   -0.0440 C   0  0  0  0  0  0  0  0  0  0  0  0
    2.5339   -0.0345   -0.0198 C   0  0  0  0  0  0  0  0  0  0  0  0
    3.0424   -1.4477   -0.3163 C   0  0  0  0  0  0  0  0  0  0  0  0
    2.6525   -2.4854    0.7131 C   0  0  0  0  0  0  0  0  0  0  0  0
    2.3028   -2.1429    2.0301 C   0  0  0  0  0  0  0  0  0  0  0  0
    2.1281   -3.1180    3.0034 C   0  0  0  0  0  0  0  0  0  0  0  0
    2.2492   -4.4578    2.6607 C   0  0  0  0  0  0  0  0  0  0  0  0
    2.5465   -4.8194    1.3467 C   0  0  0  0  0  0  0  0  0  0  0  0
    2.7472   -3.8393    0.3752 C   0  0  0  0  0  0  0  0  0  0  0  0
    3.1027    0.9337   -1.0270 C   0  0  0  0  0  0  0  0  0  0  0  0
    4.3134    1.0943   -1.1993 O   0  0  0  0  0  0  0  0  0  0  0  0
    0.5540   -0.6799    0.6737 H   0  0  0  0  0  0  0  0  0  0  0  0
    0.6228   -0.2574   -1.0332 H   0  0  0  0  0  0  0  0  0  0  0  0
    0.6443    1.0129    0.2082 H   0  0  0  0  0  0  0  0  0  0  0  0
    2.8973    0.3135    0.9551 H   0  0  0  0  0  0  0  0  0  0  0  0
    4.1403   -1.4452   -0.3627 H   0  0  0  0  0  0  0  0  0  0  0  0
    2.6942   -1.7577   -1.3120 H   0  0  0  0  0  0  0  0  0  0  0  0
    2.1614   -1.1104    2.3360 H   0  0  0  0  0  0  0  0  0  0  0  0
    1.9232   -2.8191    4.0274 H   0  0  0  0  0  0  0  0  0  0  0  0
    2.1172   -5.2191    3.4224 H   0  0  0  0  0  0  0  0  0  0  0  0
    2.6534   -5.8676    1.0844 H   0  0  0  0  0  0  0  0  0  0  0  0
    3.0017   -4.1357   -0.6405 H   0  0  0  0  0  0  0  0  0  0  0  0
    2.3771    1.5238   -1.6065 H   0  0  0  0  0  0  0  0  0  0  0  0
  1  2  1  0  0  0  0
  1 12  1  0  0  0  0
  1 13  1  0  0  0  0
  1 14  1  0  0  0  0
  2  3  1  0  0  0  0
  2 10  1  0  0  0  0
  2 15  1  0  0  0  0
  3  4  1  0  0  0  0
  3 16  1  0  0  0  0
  3 17  1  0  0  0  0
  4  5  1  0  0  0  0
  4  9  2  0  0  0  0
  5  6  2  0  0  0  0
  5 18  1  0  0  0  0
  6  7  1  0  0  0  0
  6 19  1  0  0  0  0
  7  8  2  0  0  0  0
  7 20  1  0  0  0  0
  8  9  1  0  0  0  0
  8 21  1  0  0  0  0
  9 22  1  0  0  0  0
 10 11  2  0  0  0  0
 10 23  1  0  0  0  0
M  END
$$$$
