
 OpenBabel07202215583D

 27 26  0  0  0  0  0  0  0  0999 V2000
    0.9647    0.0653    0.0818 C   0  0  0  0  0  0  0  0  0  0  0  0
    2.4786    0.0667    0.0931 C   0  0  0  0  0  0  0  0  0  0  0  0
    3.0421   -0.9208   -0.9305 C   0  0  0  0  0  0  0  0  0  0  0  0
    4.5744   -0.9532   -0.9261 C   0  0  0  0  0  0  0  0  0  0  0  0
    5.2258   -1.4115    0.7372 S   0  0  0  0  0  0  0  0  0  0  0  0
    5.1076   -1.9018   -2.0088 C   0  0  0  0  0  0  0  0  0  0  0  0
    6.6314   -1.8867   -2.0523 C   0  0  0  0  0  0  0  0  0  0  0  0
    7.1103   -2.7680   -3.0721 O   0  0  0  0  0  0  0  0  0  0  0  0
    8.4413   -2.9650   -3.2364 C   0  0  0  0  0  0  0  0  0  0  0  0
    9.4125   -2.1939   -2.3801 C   0  0  0  0  0  0  0  0  0  0  0  0
    8.8514   -3.7552   -4.0861 O   0  0  0  0  0  0  0  0  0  0  0  0
    0.5880    0.7563    0.8412 H   0  0  0  0  0  0  0  0  0  0  0  0
    0.5813   -0.9347    0.3080 H   0  0  0  0  0  0  0  0  0  0  0  0
    0.5815    0.3749   -0.8941 H   0  0  0  0  0  0  0  0  0  0  0  0
    2.8028   -0.1926    1.1055 H   0  0  0  0  0  0  0  0  0  0  0  0
    2.8540    1.0747   -0.1189 H   0  0  0  0  0  0  0  0  0  0  0  0
    2.6934   -0.6271   -1.9305 H   0  0  0  0  0  0  0  0  0  0  0  0
    2.6402   -1.9259   -0.7489 H   0  0  0  0  0  0  0  0  0  0  0  0
    4.9417    0.0584   -1.1394 H   0  0  0  0  0  0  0  0  0  0  0  0
    4.6575   -2.6247    0.8101 H   0  0  0  0  0  0  0  0  0  0  0  0
    4.7213   -1.6003   -2.9926 H   0  0  0  0  0  0  0  0  0  0  0  0
    4.7392   -2.9246   -1.8559 H   0  0  0  0  0  0  0  0  0  0  0  0
    7.0338   -2.2311   -1.0967 H   0  0  0  0  0  0  0  0  0  0  0  0
    6.9708   -0.8685   -2.2713 H   0  0  0  0  0  0  0  0  0  0  0  0
    8.9577   -1.5266   -1.6498 H   0  0  0  0  0  0  0  0  0  0  0  0
   10.0383   -1.5763   -3.0299 H   0  0  0  0  0  0  0  0  0  0  0  0
   10.0334   -2.9019   -1.8243 H   0  0  0  0  0  0  0  0  0  0  0  0
  1  2  1  0  0  0  0
  1 12  1  0  0  0  0
  1 13  1  0  0  0  0
  1 14  1  0  0  0  0
  2  3  1  0  0  0  0
  2 15  1  0  0  0  0
  2 16  1  0  0  0  0
  3  4  1  0  0  0  0
  3 17  1  0  0  0  0
  3 18  1  0  0  0  0
  4  5  1  0  0  0  0
  4  6  1  0  0  0  0
  4 19  1  0  0  0  0
  5 20  1  0  0  0  0
  6  7  1  0  0  0  0
  6 21  1  0  0  0  0
  6 22  1  0  0  0  0
  7  8  1  0  0  0  0
  7 23  1  0  0  0  0
  7 24  1  0  0  0  0
  8  9  1  0  0  0  0
  9 10  1  0  0  0  0
  9 11  2  0  0  0  0
 10 25  1  0  0  0  0
 10 26  1  0  0  0  0
 10 27  1  0  0  0  0
M  END
$$$$
