
 OpenBabel07202215583D

 16 15  0  0  0  0  0  0  0  0999 V2000
    1.1025   -0.0082    0.0244 C   0  0  0  0  0  0  0  0  0  0  0  0
    2.6386   -0.0469    0.0412 C   0  0  0  0  0  0  0  0  0  0  0  0
    3.1231   -1.1943    0.9378 C   0  0  0  0  0  0  0  0  0  0  0  0
    2.6298   -1.0376    2.2643 O   0  0  0  0  0  0  0  0  0  0  0  0
    3.1623   -0.1695   -1.3983 C   0  0  0  0  0  0  0  0  0  0  0  0
    4.9790   -0.1683   -1.5331 S   0  0  0  0  0  0  0  0  0  0  0  0
    0.6964    0.1293    1.0322 H   0  0  0  0  0  0  0  0  0  0  0  0
    0.6903   -0.9398   -0.3791 H   0  0  0  0  0  0  0  0  0  0  0  0
    0.7362    0.8192   -0.5922 H   0  0  0  0  0  0  0  0  0  0  0  0
    2.9747    0.9061    0.4720 H   0  0  0  0  0  0  0  0  0  0  0  0
    4.2140   -1.2349    1.0007 H   0  0  0  0  0  0  0  0  0  0  0  0
    2.7708   -2.1585    0.5577 H   0  0  0  0  0  0  0  0  0  0  0  0
    2.9784   -0.1992    2.6084 H   0  0  0  0  0  0  0  0  0  0  0  0
    2.7910    0.6645   -2.0039 H   0  0  0  0  0  0  0  0  0  0  0  0
    2.7967   -1.0946   -1.8567 H   0  0  0  0  0  0  0  0  0  0  0  0
    5.1963    0.9941   -0.9010 H   0  0  0  0  0  0  0  0  0  0  0  0
  1  2  1  0  0  0  0
  1  7  1  0  0  0  0
  1  8  1  0  0  0  0
  1  9  1  0  0  0  0
  2  3  1  0  0  0  0
  2  5  1  0  0  0  0
  2 10  1  0  0  0  0
  3  4  1  0  0  0  0
  3 11  1  0  0  0  0
  3 12  1  0  0  0  0
  4 13  1  0  0  0  0
  5  6  1  0  0  0  0
  5 14  1  0  0  0  0
  5 15  1  0  0  0  0
  6 16  1  0  0  0  0
M  END
$$$$
