
 OpenBabel07202215583D

 40 39  0  0  0  0  0  0  0  0999 V2000
    1.0525   -0.0830    0.0070 C   0  0  0  0  0  0  0  0  0  0  0  0
    2.5685   -0.0762    0.0098 C   0  0  0  0  0  0  0  0  0  0  0  0
    3.0919    1.2470    0.5498 C   0  0  0  0  0  0  0  0  0  0  0  0
    4.6119    1.2565    0.5537 C   0  0  0  0  0  0  0  0  0  0  0  0
    5.1252    2.5807    1.0943 C   0  0  0  0  0  0  0  0  0  0  0  0
    6.6437    2.5883    1.0974 C   0  0  0  0  0  0  0  0  0  0  0  0
    7.1562    3.9116    1.6375 C   0  0  0  0  0  0  0  0  0  0  0  0
    8.6748    3.9192    1.6406 C   0  0  0  0  0  0  0  0  0  0  0  0
    9.1886    5.2433    2.1811 C   0  0  0  0  0  0  0  0  0  0  0  0
   10.7088    5.2531    2.1851 C   0  0  0  0  0  0  0  0  0  0  0  0
   11.2317    6.5765    2.7253 C   0  0  0  0  0  0  0  0  0  0  0  0
   12.7526    6.5825    2.7277 C   0  0  0  0  0  0  0  0  0  0  0  0
   13.2841    7.8839    3.2590 C   0  0  0  0  0  0  0  0  0  0  0  0
   14.4867    8.1181    3.3546 O   0  0  0  0  0  0  0  0  0  0  0  0
    0.6786   -1.0339   -0.3812 H   0  0  0  0  0  0  0  0  0  0  0  0
    0.6635    0.7245   -0.6216 H   0  0  0  0  0  0  0  0  0  0  0  0
    0.6635    0.0540    1.0210 H   0  0  0  0  0  0  0  0  0  0  0  0
    2.9396   -0.2362   -1.0093 H   0  0  0  0  0  0  0  0  0  0  0  0
    2.9396   -0.9036    0.6257 H   0  0  0  0  0  0  0  0  0  0  0  0
    2.7192    1.4083    1.5690 H   0  0  0  0  0  0  0  0  0  0  0  0
    2.7192    2.0754   -0.0653 H   0  0  0  0  0  0  0  0  0  0  0  0
    4.9896    1.0998   -0.4641 H   0  0  0  0  0  0  0  0  0  0  0  0
    4.9896    0.4323    1.1712 H   0  0  0  0  0  0  0  0  0  0  0  0
    4.7501    2.7397    2.1128 H   0  0  0  0  0  0  0  0  0  0  0  0
    4.7501    3.4071    0.4779 H   0  0  0  0  0  0  0  0  0  0  0  0
    7.0199    2.4303    0.0791 H   0  0  0  0  0  0  0  0  0  0  0  0
    7.0199    1.7628    1.7142 H   0  0  0  0  0  0  0  0  0  0  0  0
    6.7799    4.0695    2.6558 H   0  0  0  0  0  0  0  0  0  0  0  0
    6.7799    4.7370    1.0206 H   0  0  0  0  0  0  0  0  0  0  0  0
    9.0497    3.7601    0.6220 H   0  0  0  0  0  0  0  0  0  0  0  0
    9.0497    3.0927    2.2570 H   0  0  0  0  0  0  0  0  0  0  0  0
    8.8109    5.4000    3.1989 H   0  0  0  0  0  0  0  0  0  0  0  0
    8.8109    6.0675    1.5637 H   0  0  0  0  0  0  0  0  0  0  0  0
   11.0816    5.0923    1.1660 H   0  0  0  0  0  0  0  0  0  0  0  0
   11.0816    4.4251    2.8006 H   0  0  0  0  0  0  0  0  0  0  0  0
   10.8529    6.7392    3.7423 H   0  0  0  0  0  0  0  0  0  0  0  0
   10.8529    7.4044    2.1126 H   0  0  0  0  0  0  0  0  0  0  0  0
   13.1303    6.4472    1.7089 H   0  0  0  0  0  0  0  0  0  0  0  0
   13.1303    5.7729    3.3609 H   0  0  0  0  0  0  0  0  0  0  0  0
   12.5394    8.6369    3.5663 H   0  0  0  0  0  0  0  0  0  0  0  0
  1  2  1  0  0  0  0
  1 15  1  0  0  0  0
  1 16  1  0  0  0  0
  1 17  1  0  0  0  0
  2  3  1  0  0  0  0
  2 18  1  0  0  0  0
  2 19  1  0  0  0  0
  3  4  1  0  0  0  0
  3 20  1  0  0  0  0
  3 21  1  0  0  0  0
  4  5  1  0  0  0  0
  4 22  1  0  0  0  0
  4 23  1  0  0  0  0
  5  6  1  0  0  0  0
  5 24  1  0  0  0  0
  5 25  1  0  0  0  0
  6  7  1  0  0  0  0
  6 26  1  0  0  0  0
  6 27  1  0  0  0  0
  7  8  1  0  0  0  0
  7 28  1  0  0  0  0
  7 29  1  0  0  0  0
  8  9  1  0  0  0  0
  8 30  1  0  0  0  0
  8 31  1  0  0  0  0
  9 10  1  0  0  0  0
  9 32  1  0  0  0  0
  9 33  1  0  0  0  0
 10 11  1  0  0  0  0
 10 34  1  0  0  0  0
 10 35  1  0  0  0  0
 11 12  1  0  0  0  0
 11 36  1  0  0  0  0
 11 37  1  0  0  0  0
 12 13  1  0  0  0  0
 12 38  1  0  0  0  0
 12 39  1  0  0  0  0
 13 14  2  0  0  0  0
 13 40  1  0  0  0  0
M  END
$$$$
