
 OpenBabel07202215583D

  7  6  0  0  0  0  0  0  0  0999 V2000
    0.8963   -0.0403    0.0026 S   0  0  0  0  0  0  0  0  0  0  0  0
    2.7002    0.0149   -0.0359 C   0  0  0  0  0  0  0  0  0  0  0  0
    3.4037   -1.6275    0.2133 S   0  0  0  0  0  0  0  0  0  0  0  0
    0.7025    1.2579   -0.2708 H   0  0  0  0  0  0  0  0  0  0  0  0
    3.0549    0.6827    0.7541 H   0  0  0  0  0  0  0  0  0  0  0  0
    3.0329    0.4094   -0.9991 H   0  0  0  0  0  0  0  0  0  0  0  0
    2.7988   -1.8623    1.3862 H   0  0  0  0  0  0  0  0  0  0  0  0
  1  2  1  0  0  0  0
  1  4  1  0  0  0  0
  2  3  1  0  0  0  0
  2  5  1  0  0  0  0
  2  6  1  0  0  0  0
  3  7  1  0  0  0  0
M  END
$$$$
