
 OpenBabel07222214433D

 12 11  0  0  0  0  0  0  0  0999 V2000
    0.9797    0.0602   -0.0808 C   0  0  0  0  0  0  0  0  0  0  0  0
    2.4796    0.0364   -0.0647 C   0  0  0  0  0  0  0  0  0  0  0  0
    3.1035   -0.8394    0.5249 O   0  0  0  0  0  0  0  0  0  0  0  0
    3.2415    1.1431   -0.8098 C   0  0  0  0  0  0  0  0  0  0  0  0
    2.4727    2.2141   -1.5308 C   0  0  0  0  0  0  0  0  0  0  0  0
    4.4687    1.1382   -0.8065 O   0  0  0  0  0  0  0  0  0  0  0  0
    0.6006   -0.7915    0.4927 H   0  0  0  0  0  0  0  0  0  0  0  0
    0.6116   -0.0320   -1.1054 H   0  0  0  0  0  0  0  0  0  0  0  0
    0.6116    0.9748    0.3902 H   0  0  0  0  0  0  0  0  0  0  0  0
    1.3929    2.1005   -1.4543 H   0  0  0  0  0  0  0  0  0  0  0  0
    2.7412    2.1875   -2.5907 H   0  0  0  0  0  0  0  0  0  0  0  0
    2.7412    3.1860   -1.1074 H   0  0  0  0  0  0  0  0  0  0  0  0
  1  2  1  0  0  0  0
  1  7  1  0  0  0  0
  1  8  1  0  0  0  0
  1  9  1  0  0  0  0
  2  3  2  0  0  0  0
  2  4  1  0  0  0  0
  4  5  1  0  0  0  0
  4  6  2  0  0  0  0
  5 10  1  0  0  0  0
  5 11  1  0  0  0  0
  5 12  1  0  0  0  0
M  END
$$$$
