
 OpenBabel07222214433D

 27 27  0  0  0  0  0  0  0  0999 V2000
    1.1353   -0.0092   -0.0354 C   0  0  0  0  0  0  0  0  0  0  0  0
    2.6556   -0.0148   -0.0368 C   0  0  0  0  0  0  0  0  0  0  0  0
    3.1234   -1.0099    0.8865 O   0  0  0  0  0  0  0  0  0  0  0  0
    4.4799   -1.1032    1.0004 C   0  0  0  0  0  0  0  0  0  0  0  0
    5.2812   -0.4370    0.3544 O   0  0  0  0  0  0  0  0  0  0  0  0
    4.8930   -2.1677    2.0106 C   0  0  0  0  0  0  0  0  0  0  0  0
    4.1067   -2.0188    3.3192 C   0  0  0  0  0  0  0  0  0  0  0  0
    4.3956   -3.1399    4.3127 C   0  0  0  0  0  0  0  0  0  0  0  0
    4.1794   -4.5109    3.6827 C   0  0  0  0  0  0  0  0  0  0  0  0
    5.0334   -4.6702    2.4299 C   0  0  0  0  0  0  0  0  0  0  0  0
    4.7413   -3.5692    1.4099 C   0  0  0  0  0  0  0  0  0  0  0  0
    0.7488    0.7354   -0.7386 H   0  0  0  0  0  0  0  0  0  0  0  0
    0.7449    0.2193    0.9620 H   0  0  0  0  0  0  0  0  0  0  0  0
    0.7404   -0.9913   -0.3157 H   0  0  0  0  0  0  0  0  0  0  0  0
    3.0218    0.9725    0.2661 H   0  0  0  0  0  0  0  0  0  0  0  0
    3.0175   -0.2506   -1.0432 H   0  0  0  0  0  0  0  0  0  0  0  0
    5.9564   -2.0009    2.2366 H   0  0  0  0  0  0  0  0  0  0  0  0
    3.0302   -2.0170    3.1113 H   0  0  0  0  0  0  0  0  0  0  0  0
    4.3368   -1.0504    3.7790 H   0  0  0  0  0  0  0  0  0  0  0  0
    3.7422   -3.0288    5.1853 H   0  0  0  0  0  0  0  0  0  0  0  0
    5.4288   -3.0605    4.6714 H   0  0  0  0  0  0  0  0  0  0  0  0
    3.1202   -4.6378    3.4255 H   0  0  0  0  0  0  0  0  0  0  0  0
    4.4286   -5.2946    4.4070 H   0  0  0  0  0  0  0  0  0  0  0  0
    4.8465   -5.6512    1.9789 H   0  0  0  0  0  0  0  0  0  0  0  0
    6.0941   -4.6433    2.7092 H   0  0  0  0  0  0  0  0  0  0  0  0
    3.7221   -3.6988    1.0255 H   0  0  0  0  0  0  0  0  0  0  0  0
    5.4138   -3.6838    0.5510 H   0  0  0  0  0  0  0  0  0  0  0  0
  1  2  1  0  0  0  0
  1 12  1  0  0  0  0
  1 13  1  0  0  0  0
  1 14  1  0  0  0  0
  2  3  1  0  0  0  0
  2 15  1  0  0  0  0
  2 16  1  0  0  0  0
  3  4  1  0  0  0  0
  4  5  2  0  0  0  0
  4  6  1  0  0  0  0
  6  7  1  0  0  0  0
  6 11  1  0  0  0  0
  6 17  1  0  0  0  0
  7  8  1  0  0  0  0
  7 18  1  0  0  0  0
  7 19  1  0  0  0  0
  8  9  1  0  0  0  0
  8 20  1  0  0  0  0
  8 21  1  0  0  0  0
  9 10  1  0  0  0  0
  9 22  1  0  0  0  0
  9 23  1  0  0  0  0
 10 11  1  0  0  0  0
 10 24  1  0  0  0  0
 10 25  1  0  0  0  0
 11 26  1  0  0  0  0
 11 27  1  0  0  0  0
M  END
$$$$
