
 OpenBabel07222214443D

 11 11  0  0  0  0  0  0  0  0999 V2000
    1.0874    0.6444    0.0027 C   0  0  0  0  0  0  0  0  0  0  0  0
   -0.2235    1.0612   -0.0047 C   0  0  0  0  0  0  0  0  0  0  0  0
   -1.0668   -0.0095   -0.0082 O   0  0  0  0  0  0  0  0  0  0  0  0
   -0.2811   -1.1301   -0.0062 C   0  0  0  0  0  0  0  0  0  0  0  0
    1.0492   -0.7662    0.0020 C   0  0  0  0  0  0  0  0  0  0  0  0
   -0.8774   -2.4380   -0.0152 C   0  0  0  0  0  0  0  0  0  0  0  0
   -0.2317   -3.4874   -0.0208 O   0  0  0  0  0  0  0  0  0  0  0  0
    1.9645    1.2762    0.0062 H   0  0  0  0  0  0  0  0  0  0  0  0
   -0.6918    2.0369   -0.0092 H   0  0  0  0  0  0  0  0  0  0  0  0
    1.8769   -1.4618    0.0046 H   0  0  0  0  0  0  0  0  0  0  0  0
   -1.9782   -2.4759   -0.0180 H   0  0  0  0  0  0  0  0  0  0  0  0
  1  2  2  0  0  0  0
  1  5  1  0  0  0  0
  1  8  1  0  0  0  0
  2  3  1  0  0  0  0
  2  9  1  0  0  0  0
  3  4  1  0  0  0  0
  4  5  2  0  0  0  0
  4  6  1  0  0  0  0
  5 10  1  0  0  0  0
  6  7  2  0  0  0  0
  6 11  1  0  0  0  0
M  END
$$$$
