
 OpenBabel07202215583D

 29 28  0  0  0  0  0  0  0  0999 V2000
    1.0502    0.0525   -0.0208 C   0  0  0  0  0  0  0  0  0  0  0  0
    2.5660    0.0576   -0.0255 C   0  0  0  0  0  0  0  0  0  0  0  0
    3.0903    1.1060   -0.9963 C   0  0  0  0  0  0  0  0  0  0  0  0
    4.6107    1.1113   -1.0012 C   0  0  0  0  0  0  0  0  0  0  0  0
    5.1279    2.1590   -1.9713 C   0  0  0  0  0  0  0  0  0  0  0  0
    6.6497    2.1663   -1.9781 C   0  0  0  0  0  0  0  0  0  0  0  0
    7.1429    3.2205   -2.9542 C   0  0  0  0  0  0  0  0  0  0  0  0
    8.6594    3.2763   -3.0059 C   0  0  0  0  0  0  0  0  0  0  0  0
    9.2329    4.3026   -3.9562 C   0  0  0  0  0  0  0  0  0  0  0  0
    8.3612    5.0560   -4.6539 O   0  0  0  0  0  0  0  0  0  0  0  0
   10.4424    4.4497   -4.0925 O   0  0  0  0  0  0  0  0  0  0  0  0
    0.6761   -0.7010    0.6769 H   0  0  0  0  0  0  0  0  0  0  0  0
    0.6614   -0.1759   -1.0183 H   0  0  0  0  0  0  0  0  0  0  0  0
    0.6614    1.0295    0.2835 H   0  0  0  0  0  0  0  0  0  0  0  0
    2.9370   -0.9337   -0.3111 H   0  0  0  0  0  0  0  0  0  0  0  0
    2.9370    0.2662    0.9847 H   0  0  0  0  0  0  0  0  0  0  0  0
    2.7177    2.0980   -0.7121 H   0  0  0  0  0  0  0  0  0  0  0  0
    2.7177    0.8987   -2.0072 H   0  0  0  0  0  0  0  0  0  0  0  0
    4.9870    0.1223   -1.2895 H   0  0  0  0  0  0  0  0  0  0  0  0
    4.9870    1.3228    0.0070 H   0  0  0  0  0  0  0  0  0  0  0  0
    4.7515    3.1496   -1.6861 H   0  0  0  0  0  0  0  0  0  0  0  0
    4.7515    1.9506   -2.9809 H   0  0  0  0  0  0  0  0  0  0  0  0
    7.0267    1.1782   -2.2679 H   0  0  0  0  0  0  0  0  0  0  0  0
    7.0267    2.3793   -0.9706 H   0  0  0  0  0  0  0  0  0  0  0  0
    6.7475    4.1987   -2.6537 H   0  0  0  0  0  0  0  0  0  0  0  0
    6.7475    2.9960   -3.9527 H   0  0  0  0  0  0  0  0  0  0  0  0
    9.0459    2.2950   -3.3072 H   0  0  0  0  0  0  0  0  0  0  0  0
    9.0459    3.5014   -2.0044 H   0  0  0  0  0  0  0  0  0  0  0  0
    7.4112    4.9006   -4.5100 H   0  0  0  0  0  0  0  0  0  0  0  0
  1  2  1  0  0  0  0
  1 12  1  0  0  0  0
  1 13  1  0  0  0  0
  1 14  1  0  0  0  0
  2  3  1  0  0  0  0
  2 15  1  0  0  0  0
  2 16  1  0  0  0  0
  3  4  1  0  0  0  0
  3 17  1  0  0  0  0
  3 18  1  0  0  0  0
  4  5  1  0  0  0  0
  4 19  1  0  0  0  0
  4 20  1  0  0  0  0
  5  6  1  0  0  0  0
  5 21  1  0  0  0  0
  5 22  1  0  0  0  0
  6  7  1  0  0  0  0
  6 23  1  0  0  0  0
  6 24  1  0  0  0  0
  7  8  1  0  0  0  0
  7 25  1  0  0  0  0
  7 26  1  0  0  0  0
  8  9  1  0  0  0  0
  8 27  1  0  0  0  0
  8 28  1  0  0  0  0
  9 10  1  0  0  0  0
  9 11  2  0  0  0  0
 10 29  1  0  0  0  0
M  END
$$$$
