
 OpenBabel07202215583D

 19 18  0  0  0  0  0  0  0  0999 V2000
    0.9699   -0.0868   -0.0533 C   0  0  0  0  0  0  0  0  0  0  0  0
    2.4896   -0.0884   -0.0458 C   0  0  0  0  0  0  0  0  0  0  0  0
    3.0134   -0.3812    1.3548 C   0  0  0  0  0  0  0  0  0  0  0  0
    4.5376   -0.3917    1.4053 C   0  0  0  0  0  0  0  0  0  0  0  0
    5.0293   -0.6855    2.8108 C   0  0  0  0  0  0  0  0  0  0  0  0
    4.2615   -0.8828    3.7545 O   0  0  0  0  0  0  0  0  0  0  0  0
    6.5161   -0.7307    3.0269 C   0  0  0  0  0  0  0  0  0  0  0  0
    0.5930    0.1232   -1.0581 H   0  0  0  0  0  0  0  0  0  0  0  0
    0.5785    0.6768    0.6269 H   0  0  0  0  0  0  0  0  0  0  0  0
    0.5785   -1.0590    0.2640 H   0  0  0  0  0  0  0  0  0  0  0  0
    2.8574    0.8857   -0.3878 H   0  0  0  0  0  0  0  0  0  0  0  0
    2.8574   -0.8439   -0.7494 H   0  0  0  0  0  0  0  0  0  0  0  0
    2.6290   -1.3514    1.6947 H   0  0  0  0  0  0  0  0  0  0  0  0
    2.6290    0.3717    2.0549 H   0  0  0  0  0  0  0  0  0  0  0  0
    4.9313    0.5827    1.0954 H   0  0  0  0  0  0  0  0  0  0  0  0
    4.9313   -1.1605    0.7310 H   0  0  0  0  0  0  0  0  0  0  0  0
    7.0519   -0.5359    2.0949 H   0  0  0  0  0  0  0  0  0  0  0  0
    6.7914   -1.7230    3.3929 H   0  0  0  0  0  0  0  0  0  0  0  0
    6.7914    0.0319    3.7598 H   0  0  0  0  0  0  0  0  0  0  0  0
  1  2  1  0  0  0  0
  1  8  1  0  0  0  0
  1  9  1  0  0  0  0
  1 10  1  0  0  0  0
  2  3  1  0  0  0  0
  2 11  1  0  0  0  0
  2 12  1  0  0  0  0
  3  4  1  0  0  0  0
  3 13  1  0  0  0  0
  3 14  1  0  0  0  0
  4  5  1  0  0  0  0
  4 15  1  0  0  0  0
  4 16  1  0  0  0  0
  5  6  2  0  0  0  0
  5  7  1  0  0  0  0
  7 17  1  0  0  0  0
  7 18  1  0  0  0  0
  7 19  1  0  0  0  0
M  END
$$$$
