
 OpenBabel07222214433D

 26 25  0  0  0  0  0  0  0  0999 V2000
    1.0553   -0.0713    0.0160 C   0  0  0  0  0  0  0  0  0  0  0  0
    2.5713   -0.0655    0.0223 C   0  0  0  0  0  0  0  0  0  0  0  0
    3.0920    0.9033    1.0751 C   0  0  0  0  0  0  0  0  0  0  0  0
    4.6111    0.9134    1.0861 C   0  0  0  0  0  0  0  0  0  0  0  0
    5.1276    1.8836    2.1404 C   0  0  0  0  0  0  0  0  0  0  0  0
    6.6470    1.8754    2.1315 C   0  0  0  0  0  0  0  0  0  0  0  0
    7.2245    2.8266    3.1651 C   0  0  0  0  0  0  0  0  0  0  0  0
    8.7345    2.8772    3.2201 C   0  0  0  0  0  0  0  0  0  0  0  0
    9.4123    2.0890    2.3636 O   0  0  0  0  0  0  0  0  0  0  0  0
    9.3267    3.6041    4.0101 O   0  0  0  0  0  0  0  0  0  0  0  0
    0.6817   -0.7668   -0.7398 H   0  0  0  0  0  0  0  0  0  0  0  0
    0.6663    0.9268   -0.2094 H   0  0  0  0  0  0  0  0  0  0  0  0
    0.6663   -0.3787    0.9920 H   0  0  0  0  0  0  0  0  0  0  0  0
    2.9429    0.2231   -0.9679 H   0  0  0  0  0  0  0  0  0  0  0  0
    2.9429   -1.0763    0.2278 H   0  0  0  0  0  0  0  0  0  0  0  0
    2.7187    0.6145    2.0653 H   0  0  0  0  0  0  0  0  0  0  0  0
    2.7187    1.9140    0.8695 H   0  0  0  0  0  0  0  0  0  0  0  0
    4.9891    1.2029    0.0975 H   0  0  0  0  0  0  0  0  0  0  0  0
    4.9891   -0.0958    1.2926 H   0  0  0  0  0  0  0  0  0  0  0  0
    4.7554    1.5934    3.1303 H   0  0  0  0  0  0  0  0  0  0  0  0
    4.7554    2.8942    1.9333 H   0  0  0  0  0  0  0  0  0  0  0  0
    7.0000    2.1586    1.1321 H   0  0  0  0  0  0  0  0  0  0  0  0
    7.0000    0.8560    2.3308 H   0  0  0  0  0  0  0  0  0  0  0  0
    6.8677    2.5365    4.1609 H   0  0  0  0  0  0  0  0  0  0  0  0
    6.8677    3.8430    2.9586 H   0  0  0  0  0  0  0  0  0  0  0  0
    8.8960    1.5303    1.7565 H   0  0  0  0  0  0  0  0  0  0  0  0
  1  2  1  0  0  0  0
  1 11  1  0  0  0  0
  1 12  1  0  0  0  0
  1 13  1  0  0  0  0
  2  3  1  0  0  0  0
  2 14  1  0  0  0  0
  2 15  1  0  0  0  0
  3  4  1  0  0  0  0
  3 16  1  0  0  0  0
  3 17  1  0  0  0  0
  4  5  1  0  0  0  0
  4 18  1  0  0  0  0
  4 19  1  0  0  0  0
  5  6  1  0  0  0  0
  5 20  1  0  0  0  0
  5 21  1  0  0  0  0
  6  7  1  0  0  0  0
  6 22  1  0  0  0  0
  6 23  1  0  0  0  0
  7  8  1  0  0  0  0
  7 24  1  0  0  0  0
  7 25  1  0  0  0  0
  8  9  1  0  0  0  0
  8 10  2  0  0  0  0
  9 26  1  0  0  0  0
M  END
$$$$
