
 OpenBabel07222214443D

 24 24  0  0  0  0  0  0  0  0999 V2000
    0.9463   -0.0559   -0.0593 C   0  0  0  0  0  0  0  0  0  0  0  0
    2.4496   -0.1355   -0.0621 C   0  0  0  0  0  0  0  0  0  0  0  0
    3.0355   -1.2097   -0.2050 O   0  0  0  0  0  0  0  0  0  0  0  0
    3.1801    1.1714    0.1013 C   0  0  0  0  0  0  0  0  0  0  0  0
    4.7014    1.0127    0.0788 C   0  0  0  0  0  0  0  0  0  0  0  0
    5.4464    2.3198    0.2511 C   0  0  0  0  0  0  0  0  0  0  0  0
    6.8268    2.3138    0.5081 C   0  0  0  0  0  0  0  0  0  0  0  0
    7.5288    3.5183    0.6530 C   0  0  0  0  0  0  0  0  0  0  0  0
    6.8497    4.7276    0.5336 C   0  0  0  0  0  0  0  0  0  0  0  0
    5.4899    4.7524    0.2813 C   0  0  0  0  0  0  0  0  0  0  0  0
    4.7967    3.5579    0.1355 C   0  0  0  0  0  0  0  0  0  0  0  0
    7.4709    5.9341    0.6522 O   0  0  0  0  0  0  0  0  0  0  0  0
    0.5317   -1.0574   -0.1934 H   0  0  0  0  0  0  0  0  0  0  0  0
    0.6081    0.5813   -0.8812 H   0  0  0  0  0  0  0  0  0  0  0  0
    0.5999    0.3495    0.8949 H   0  0  0  0  0  0  0  0  0  0  0  0
    2.8641    1.6254    1.0491 H   0  0  0  0  0  0  0  0  0  0  0  0
    2.8528    1.8146   -0.7244 H   0  0  0  0  0  0  0  0  0  0  0  0
    5.0079    0.5577   -0.8722 H   0  0  0  0  0  0  0  0  0  0  0  0
    5.0003    0.3224    0.8788 H   0  0  0  0  0  0  0  0  0  0  0  0
    7.3636    1.3702    0.5991 H   0  0  0  0  0  0  0  0  0  0  0  0
    8.5943    3.4905    0.8580 H   0  0  0  0  0  0  0  0  0  0  0  0
    4.9611    5.6959    0.1944 H   0  0  0  0  0  0  0  0  0  0  0  0
    3.7339    3.6314   -0.0676 H   0  0  0  0  0  0  0  0  0  0  0  0
    8.4184    5.7870    0.7943 H   0  0  0  0  0  0  0  0  0  0  0  0
  1  2  1  0  0  0  0
  1 13  1  0  0  0  0
  1 14  1  0  0  0  0
  1 15  1  0  0  0  0
  2  3  2  0  0  0  0
  2  4  1  0  0  0  0
  4  5  1  0  0  0  0
  4 16  1  0  0  0  0
  4 17  1  0  0  0  0
  5  6  1  0  0  0  0
  5 18  1  0  0  0  0
  5 19  1  0  0  0  0
  6  7  2  0  0  0  0
  6 11  1  0  0  0  0
  7  8  1  0  0  0  0
  7 20  1  0  0  0  0
  8  9  2  0  0  0  0
  8 21  1  0  0  0  0
  9 10  1  0  0  0  0
  9 12  1  0  0  0  0
 10 11  2  0  0  0  0
 10 22  1  0  0  0  0
 11 23  1  0  0  0  0
 12 24  1  0  0  0  0
M  END
$$$$
