
 OpenBabel07202215583D

 32 31  0  0  0  0  0  0  0  0999 V2000
    0.9049    0.0211   -0.0386 C   0  0  0  0  0  0  0  0  0  0  0  0
    2.4236    0.0216   -0.0508 C   0  0  0  0  0  0  0  0  0  0  0  0
    2.9535    0.0790   -1.4818 C   0  0  0  0  0  0  0  0  0  0  0  0
    4.4803    0.0800   -1.5059 C   0  0  0  0  0  0  0  0  0  0  0  0
    5.0116    0.1375   -2.9398 C   0  0  0  0  0  0  0  0  0  0  0  0
    6.5377    0.1386   -2.9671 C   0  0  0  0  0  0  0  0  0  0  0  0
    7.0081    0.1932   -4.3274 O   0  0  0  0  0  0  0  0  0  0  0  0
    8.3712    0.1971   -4.4242 C   0  0  0  0  0  0  0  0  0  0  0  0
    9.1297    0.1585   -3.4618 O   0  0  0  0  0  0  0  0  0  0  0  0
    8.8269    0.2551   -5.8695 C   0  0  0  0  0  0  0  0  0  0  0  0
   10.3580    0.2583   -5.9478 C   0  0  0  0  0  0  0  0  0  0  0  0
   10.8730    0.3156   -7.3756 C   0  0  0  0  0  0  0  0  0  0  0  0
    0.5315   -0.0202    0.9887 H   0  0  0  0  0  0  0  0  0  0  0  0
    0.5126   -0.8450   -0.5813 H   0  0  0  0  0  0  0  0  0  0  0  0
    0.5126    0.9278   -0.5101 H   0  0  0  0  0  0  0  0  0  0  0  0
    2.7916   -0.8820    0.4493 H   0  0  0  0  0  0  0  0  0  0  0  0
    2.7916    0.8821    0.5201 H   0  0  0  0  0  0  0  0  0  0  0  0
    2.5761    0.9822   -1.9767 H   0  0  0  0  0  0  0  0  0  0  0  0
    2.5761   -0.7816   -2.0475 H   0  0  0  0  0  0  0  0  0  0  0  0
    4.8533   -0.8230   -1.0069 H   0  0  0  0  0  0  0  0  0  0  0  0
    4.8533    0.9401   -0.9361 H   0  0  0  0  0  0  0  0  0  0  0  0
    4.6339    1.0351   -3.4444 H   0  0  0  0  0  0  0  0  0  0  0  0
    4.6339   -0.7167   -3.5147 H   0  0  0  0  0  0  0  0  0  0  0  0
    6.9109   -0.7760   -2.4904 H   0  0  0  0  0  0  0  0  0  0  0  0
    6.9109    1.0121   -2.4186 H   0  0  0  0  0  0  0  0  0  0  0  0
    8.4330    1.1667   -6.3325 H   0  0  0  0  0  0  0  0  0  0  0  0
    8.4330   -0.6164   -6.4041 H   0  0  0  0  0  0  0  0  0  0  0  0
   10.7553   -0.6416   -5.4620 H   0  0  0  0  0  0  0  0  0  0  0  0
   10.7553    1.1163   -5.3914 H   0  0  0  0  0  0  0  0  0  0  0  0
   10.5331   -0.5505   -7.9513 H   0  0  0  0  0  0  0  0  0  0  0  0
   11.9686    0.3158   -7.3808 H   0  0  0  0  0  0  0  0  0  0  0  0
   10.5331    1.2251   -7.8800 H   0  0  0  0  0  0  0  0  0  0  0  0
  1  2  1  0  0  0  0
  1 13  1  0  0  0  0
  1 14  1  0  0  0  0
  1 15  1  0  0  0  0
  2  3  1  0  0  0  0
  2 16  1  0  0  0  0
  2 17  1  0  0  0  0
  3  4  1  0  0  0  0
  3 18  1  0  0  0  0
  3 19  1  0  0  0  0
  4  5  1  0  0  0  0
  4 20  1  0  0  0  0
  4 21  1  0  0  0  0
  5  6  1  0  0  0  0
  5 22  1  0  0  0  0
  5 23  1  0  0  0  0
  6  7  1  0  0  0  0
  6 24  1  0  0  0  0
  6 25  1  0  0  0  0
  7  8  1  0  0  0  0
  8  9  2  0  0  0  0
  8 10  1  0  0  0  0
 10 11  1  0  0  0  0
 10 26  1  0  0  0  0
 10 27  1  0  0  0  0
 11 12  1  0  0  0  0
 11 28  1  0  0  0  0
 11 29  1  0  0  0  0
 12 30  1  0  0  0  0
 12 31  1  0  0  0  0
 12 32  1  0  0  0  0
M  END
$$$$
