
 OpenBabel07222214433D

 25 24  0  0  0  0  0  0  0  0999 V2000
    1.0681    0.0522   -0.0393 C   0  0  0  0  0  0  0  0  0  0  0  0
    2.5849    0.0444   -0.0365 C   0  0  0  0  0  0  0  0  0  0  0  0
    3.1110   -1.3000    0.4493 C   0  0  0  0  0  0  0  0  0  0  0  0
    4.6335   -1.3118    0.4536 C   0  0  0  0  0  0  0  0  0  0  0  0
    5.1527   -2.6580    0.9401 C   0  0  0  0  0  0  0  0  0  0  0  0
    6.6759   -2.6758    0.9465 C   0  0  0  0  0  0  0  0  0  0  0  0
    7.1898   -4.0228    1.4333 C   0  0  0  0  0  0  0  0  0  0  0  0
    8.6927   -4.0540    1.4446 C   0  0  0  0  0  0  0  0  0  0  0  0
    9.3319   -5.0409    1.8012 O   0  0  0  0  0  0  0  0  0  0  0  0
    0.6942    1.0183   -0.3885 H   0  0  0  0  0  0  0  0  0  0  0  0
    0.6784   -0.1254    0.9681 H   0  0  0  0  0  0  0  0  0  0  0  0
    0.6784   -0.7284   -0.7005 H   0  0  0  0  0  0  0  0  0  0  0  0
    2.9549    0.8468    0.6124 H   0  0  0  0  0  0  0  0  0  0  0  0
    2.9549    0.2466   -1.0485 H   0  0  0  0  0  0  0  0  0  0  0  0
    2.7371   -2.1019   -0.1993 H   0  0  0  0  0  0  0  0  0  0  0  0
    2.7371   -1.5021    1.4607 H   0  0  0  0  0  0  0  0  0  0  0  0
    5.0091   -0.5121    1.1036 H   0  0  0  0  0  0  0  0  0  0  0  0
    5.0091   -1.1124   -0.5575 H   0  0  0  0  0  0  0  0  0  0  0  0
    4.7745   -3.4568    0.2902 H   0  0  0  0  0  0  0  0  0  0  0  0
    4.7745   -2.8569    1.9505 H   0  0  0  0  0  0  0  0  0  0  0  0
    7.0549   -1.8737    1.5924 H   0  0  0  0  0  0  0  0  0  0  0  0
    7.0549   -2.4719   -0.0630 H   0  0  0  0  0  0  0  0  0  0  0  0
    6.8351   -4.8212    0.7732 H   0  0  0  0  0  0  0  0  0  0  0  0
    6.8351   -4.2148    2.4513 H   0  0  0  0  0  0  0  0  0  0  0  0
    9.2116   -3.1388    1.1138 H   0  0  0  0  0  0  0  0  0  0  0  0
  1  2  1  0  0  0  0
  1 10  1  0  0  0  0
  1 11  1  0  0  0  0
  1 12  1  0  0  0  0
  2  3  1  0  0  0  0
  2 13  1  0  0  0  0
  2 14  1  0  0  0  0
  3  4  1  0  0  0  0
  3 15  1  0  0  0  0
  3 16  1  0  0  0  0
  4  5  1  0  0  0  0
  4 17  1  0  0  0  0
  4 18  1  0  0  0  0
  5  6  1  0  0  0  0
  5 19  1  0  0  0  0
  5 20  1  0  0  0  0
  6  7  1  0  0  0  0
  6 21  1  0  0  0  0
  6 22  1  0  0  0  0
  7  8  1  0  0  0  0
  7 23  1  0  0  0  0
  7 24  1  0  0  0  0
  8  9  2  0  0  0  0
  8 25  1  0  0  0  0
M  END
$$$$
