
 OpenBabel07222214443D

 14 14  0  0  0  0  0  0  0  0999 V2000
    1.2866    0.1570   -0.1271 C   0  0  0  0  0  0  0  0  0  0  0  0
    0.5799   -1.1285    0.2491 C   0  0  0  0  0  0  0  0  0  0  0  0
   -0.8294   -0.8770   -0.2406 C   0  0  0  0  0  0  0  0  0  0  0  0
   -1.0814    0.5235    0.1157 N   0  0  0  0  0  0  0  0  0  0  0  0
    0.2070    1.2235   -0.0096 C   0  0  0  0  0  0  0  0  0  0  0  0
    1.6396    0.0971   -1.1638 H   0  0  0  0  0  0  0  0  0  0  0  0
    2.1484    0.3569    0.5162 H   0  0  0  0  0  0  0  0  0  0  0  0
    0.5908   -1.2611    1.3379 H   0  0  0  0  0  0  0  0  0  0  0  0
    1.0382   -2.0083   -0.2111 H   0  0  0  0  0  0  0  0  0  0  0  0
   -1.5575   -1.5488    0.2236 H   0  0  0  0  0  0  0  0  0  0  0  0
   -0.8954   -0.9984   -1.3279 H   0  0  0  0  0  0  0  0  0  0  0  0
   -1.3680    0.5581    1.0944 H   0  0  0  0  0  0  0  0  0  0  0  0
    0.3739    1.8514    0.8726 H   0  0  0  0  0  0  0  0  0  0  0  0
    0.2049    1.8778   -0.8873 H   0  0  0  0  0  0  0  0  0  0  0  0
  1  2  1  0  0  0  0
  1  5  1  0  0  0  0
  1  6  1  0  0  0  0
  1  7  1  0  0  0  0
  2  3  1  0  0  0  0
  2  8  1  0  0  0  0
  2  9  1  0  0  0  0
  3  4  1  0  0  0  0
  3 10  1  0  0  0  0
  3 11  1  0  0  0  0
  4  5  1  0  0  0  0
  4 12  1  0  0  0  0
  5 13  1  0  0  0  0
  5 14  1  0  0  0  0
M  END
$$$$
