
 OpenBabel07122215493D

 17 17  0  0  0  0  0  0  0  0999 V2000
    0.9669    0.0007    0.0464 O   0  0  0  0  0  0  0  0  0  0  0  0
    2.1988   -0.0168    0.0696 C   0  0  0  0  0  0  0  0  0  0  0  0
    3.0329   -0.9377   -0.7927 C   0  0  0  0  0  0  0  0  0  0  0  0
    4.5162   -0.7271   -0.5978 C   0  0  0  0  0  0  0  0  0  0  0  0
    5.3779   -1.8206   -0.4368 C   0  0  0  0  0  0  0  0  0  0  0  0
    6.7190   -1.6142   -0.1069 C   0  0  0  0  0  0  0  0  0  0  0  0
    7.2273   -0.3193   -0.0156 C   0  0  0  0  0  0  0  0  0  0  0  0
    6.3953    0.7723   -0.2440 C   0  0  0  0  0  0  0  0  0  0  0  0
    5.0521    0.5690   -0.5490 C   0  0  0  0  0  0  0  0  0  0  0  0
    2.7407    0.6604    0.7507 H   0  0  0  0  0  0  0  0  0  0  0  0
    2.7739   -0.7784   -1.8441 H   0  0  0  0  0  0  0  0  0  0  0  0
    2.7612   -1.9616   -0.5095 H   0  0  0  0  0  0  0  0  0  0  0  0
    5.0122   -2.8402   -0.5449 H   0  0  0  0  0  0  0  0  0  0  0  0
    7.3659   -2.4637    0.0975 H   0  0  0  0  0  0  0  0  0  0  0  0
    8.2743   -0.1601    0.2270 H   0  0  0  0  0  0  0  0  0  0  0  0
    6.7830    1.7843   -0.1648 H   0  0  0  0  0  0  0  0  0  0  0  0
    4.4203    1.4389   -0.7163 H   0  0  0  0  0  0  0  0  0  0  0  0
  1  2  2  0  0  0  0
  2  3  1  0  0  0  0
  2 10  1  0  0  0  0
  3  4  1  0  0  0  0
  3 11  1  0  0  0  0
  3 12  1  0  0  0  0
  4  5  1  0  0  0  0
  4  9  2  0  0  0  0
  5  6  2  0  0  0  0
  5 13  1  0  0  0  0
  6  7  1  0  0  0  0
  6 14  1  0  0  0  0
  7  8  2  0  0  0  0
  7 15  1  0  0  0  0
  8  9  1  0  0  0  0
  8 16  1  0  0  0  0
  9 17  1  0  0  0  0
M  END
$$$$
