
 OpenBabel07122215493D

 20 19  0  0  0  0  0  0  0  0999 V2000
    0.9360   -0.0802    0.0412 C   0  0  0  0  0  0  0  0  0  0  0  0
    2.4553   -0.0873    0.0471 C   0  0  0  0  0  0  0  0  0  0  0  0
    3.0405   -1.1786    0.9513 C   0  0  0  0  0  0  0  0  0  0  0  0
    4.5570   -1.1387    0.9182 C   0  0  0  0  0  0  0  0  0  0  0  0
    5.2129   -0.3411    0.2574 O   0  0  0  0  0  0  0  0  0  0  0  0
    5.1023   -2.1036    1.7178 O   0  0  0  0  0  0  0  0  0  0  0  0
    6.5422   -2.1004    1.7152 C   0  0  0  0  0  0  0  0  0  0  0  0
    7.0681   -3.1977    2.6244 C   0  0  0  0  0  0  0  0  0  0  0  0
    0.5658    0.7138   -0.6168 H   0  0  0  0  0  0  0  0  0  0  0  0
    0.5395    0.1013    1.0447 H   0  0  0  0  0  0  0  0  0  0  0  0
    0.5395   -1.0325   -0.3236 H   0  0  0  0  0  0  0  0  0  0  0  0
    2.8142    0.8963    0.3744 H   0  0  0  0  0  0  0  0  0  0  0  0
    2.8142   -0.2262   -0.9803 H   0  0  0  0  0  0  0  0  0  0  0  0
    2.7007   -2.1619    0.6075 H   0  0  0  0  0  0  0  0  0  0  0  0
    2.7007   -1.0235    1.9814 H   0  0  0  0  0  0  0  0  0  0  0  0
    6.9086   -1.1313    2.0739 H   0  0  0  0  0  0  0  0  0  0  0  0
    6.9086   -2.2729    0.6963 H   0  0  0  0  0  0  0  0  0  0  0  0
    6.7169   -3.0557    3.6512 H   0  0  0  0  0  0  0  0  0  0  0  0
    8.1635   -3.2046    2.6301 H   0  0  0  0  0  0  0  0  0  0  0  0
    6.7169   -4.1803    2.2940 H   0  0  0  0  0  0  0  0  0  0  0  0
  1  2  1  0  0  0  0
  1  9  1  0  0  0  0
  1 10  1  0  0  0  0
  1 11  1  0  0  0  0
  2  3  1  0  0  0  0
  2 12  1  0  0  0  0
  2 13  1  0  0  0  0
  3  4  1  0  0  0  0
  3 14  1  0  0  0  0
  3 15  1  0  0  0  0
  4  5  2  0  0  0  0
  4  6  1  0  0  0  0
  6  7  1  0  0  0  0
  7  8  1  0  0  0  0
  7 16  1  0  0  0  0
  7 17  1  0  0  0  0
  8 18  1  0  0  0  0
  8 19  1  0  0  0  0
  8 20  1  0  0  0  0
M  END
$$$$
