
 OpenBabel07202215583D

 19 19  0  0  0  0  0  0  0  0999 V2000
    1.0457    0.1126    0.0515 C   0  0  0  0  0  0  0  0  0  0  0  0
    2.5687    0.1210    0.0447 C   0  0  0  0  0  0  0  0  0  0  0  0
    3.1165   -1.5153    0.5686 S   0  0  0  0  0  0  0  0  0  0  0  0
    3.4088   -0.8973    2.2394 C   0  0  0  0  0  0  0  0  0  0  0  0
    4.6599   -1.5503    2.7799 C   0  0  0  0  0  0  0  0  0  0  0  0
    3.5098    0.6129    2.0470 C   0  0  0  0  0  0  0  0  0  0  0  0
    3.0590    1.1700    0.9636 N   0  0  0  0  0  0  0  0  0  0  0  0
    4.0763    1.4735    3.1494 C   0  0  0  0  0  0  0  0  0  0  0  0
    0.6507   -0.6737   -0.6028 H   0  0  0  0  0  0  0  0  0  0  0  0
    0.6509    1.0700   -0.3007 H   0  0  0  0  0  0  0  0  0  0  0  0
    0.6461   -0.0516    1.0601 H   0  0  0  0  0  0  0  0  0  0  0  0
    2.9432    0.3167   -0.9652 H   0  0  0  0  0  0  0  0  0  0  0  0
    2.5377   -1.1059    2.8693 H   0  0  0  0  0  0  0  0  0  0  0  0
    5.5429   -1.2765    2.1921 H   0  0  0  0  0  0  0  0  0  0  0  0
    4.5610   -2.6412    2.7831 H   0  0  0  0  0  0  0  0  0  0  0  0
    4.8470   -1.2428    3.8125 H   0  0  0  0  0  0  0  0  0  0  0  0
    4.3417    0.8791    4.0252 H   0  0  0  0  0  0  0  0  0  0  0  0
    3.3396    2.2211    3.4553 H   0  0  0  0  0  0  0  0  0  0  0  0
    4.9741    1.9832    2.7874 H   0  0  0  0  0  0  0  0  0  0  0  0
  1  2  1  0  0  0  0
  1  9  1  0  0  0  0
  1 10  1  0  0  0  0
  1 11  1  0  0  0  0
  2  3  1  0  0  0  0
  2  7  1  0  0  0  0
  2 12  1  0  0  0  0
  3  4  1  0  0  0  0
  4  5  1  0  0  0  0
  4  6  1  0  0  0  0
  4 13  1  0  0  0  0
  5 14  1  0  0  0  0
  5 15  1  0  0  0  0
  5 16  1  0  0  0  0
  6  7  2  0  0  0  0
  6  8  1  0  0  0  0
  8 17  1  0  0  0  0
  8 18  1  0  0  0  0
  8 19  1  0  0  0  0
M  END
$$$$
