
 OpenBabel07222214433D

 32 31  0  0  0  0  0  0  0  0999 V2000
    0.8988    0.0127    0.0618 C   0  0  0  0  0  0  0  0  0  0  0  0
    2.4154    0.0050    0.0587 C   0  0  0  0  0  0  0  0  0  0  0  0
    2.9398   -1.3213   -0.4756 C   0  0  0  0  0  0  0  0  0  0  0  0
    4.4614   -1.3349   -0.4811 C   0  0  0  0  0  0  0  0  0  0  0  0
    4.9767   -2.6645   -1.0168 C   0  0  0  0  0  0  0  0  0  0  0  0
    6.4973   -2.6783   -1.0224 C   0  0  0  0  0  0  0  0  0  0  0  0
    7.0308   -4.0022   -1.5558 C   0  0  0  0  0  0  0  0  0  0  0  0
    8.5516   -3.9851   -1.5489 C   0  0  0  0  0  0  0  0  0  0  0  0
    9.0455   -5.2330   -2.0516 O   0  0  0  0  0  0  0  0  0  0  0  0
   10.3730   -5.4794   -2.1509 C   0  0  0  0  0  0  0  0  0  0  0  0
   11.3484   -4.4170   -1.7229 C   0  0  0  0  0  0  0  0  0  0  0  0
   10.7766   -6.5571   -2.5851 O   0  0  0  0  0  0  0  0  0  0  0  0
    0.5248    0.9655    0.4457 H   0  0  0  0  0  0  0  0  0  0  0  0
    0.5091   -0.7914    0.6942 H   0  0  0  0  0  0  0  0  0  0  0  0
    0.5091   -0.1284   -0.9514 H   0  0  0  0  0  0  0  0  0  0  0  0
    2.7858    0.1702    1.0772 H   0  0  0  0  0  0  0  0  0  0  0  0
    2.7858    0.8301   -0.5608 H   0  0  0  0  0  0  0  0  0  0  0  0
    2.5659   -1.4863   -1.4937 H   0  0  0  0  0  0  0  0  0  0  0  0
    2.5659   -2.1459    0.1437 H   0  0  0  0  0  0  0  0  0  0  0  0
    4.8384   -1.1723    0.5362 H   0  0  0  0  0  0  0  0  0  0  0  0
    4.8384   -0.5125   -1.1016 H   0  0  0  0  0  0  0  0  0  0  0  0
    4.5998   -2.8257   -2.0340 H   0  0  0  0  0  0  0  0  0  0  0  0
    4.5998   -3.4858   -0.3954 H   0  0  0  0  0  0  0  0  0  0  0  0
    6.8703   -2.5111   -0.0040 H   0  0  0  0  0  0  0  0  0  0  0  0
    6.8703   -1.8519   -1.6404 H   0  0  0  0  0  0  0  0  0  0  0  0
    6.6629   -4.1818   -2.5734 H   0  0  0  0  0  0  0  0  0  0  0  0
    6.6629   -4.8372   -0.9468 H   0  0  0  0  0  0  0  0  0  0  0  0
    8.9052   -3.8455   -0.5216 H   0  0  0  0  0  0  0  0  0  0  0  0
    8.9052   -3.1723   -2.1924 H   0  0  0  0  0  0  0  0  0  0  0  0
   10.8923   -3.5003   -1.3536 H   0  0  0  0  0  0  0  0  0  0  0  0
   11.9718   -4.1462   -2.5794 H   0  0  0  0  0  0  0  0  0  0  0  0
   11.9718   -4.8156   -0.9178 H   0  0  0  0  0  0  0  0  0  0  0  0
  1  2  1  0  0  0  0
  1 13  1  0  0  0  0
  1 14  1  0  0  0  0
  1 15  1  0  0  0  0
  2  3  1  0  0  0  0
  2 16  1  0  0  0  0
  2 17  1  0  0  0  0
  3  4  1  0  0  0  0
  3 18  1  0  0  0  0
  3 19  1  0  0  0  0
  4  5  1  0  0  0  0
  4 20  1  0  0  0  0
  4 21  1  0  0  0  0
  5  6  1  0  0  0  0
  5 22  1  0  0  0  0
  5 23  1  0  0  0  0
  6  7  1  0  0  0  0
  6 24  1  0  0  0  0
  6 25  1  0  0  0  0
  7  8  1  0  0  0  0
  7 26  1  0  0  0  0
  7 27  1  0  0  0  0
  8  9  1  0  0  0  0
  8 28  1  0  0  0  0
  8 29  1  0  0  0  0
  9 10  1  0  0  0  0
 10 11  1  0  0  0  0
 10 12  2  0  0  0  0
 11 30  1  0  0  0  0
 11 31  1  0  0  0  0
 11 32  1  0  0  0  0
M  END
$$$$
