
 OpenBabel07202215583D

 35 36  0  0  0  0  0  0  0  0999 V2000
    1.1053   -0.2631    0.4094 C   0  0  0  0  0  0  0  0  0  0  0  0
    2.5719   -0.0341    0.0704 C   0  0  0  0  0  0  0  0  0  0  0  0
    2.9792    0.6752   -1.2535 C   0  0  0  0  0  0  0  0  0  0  0  0
    2.0557    1.8134   -1.8769 C   0  0  0  0  0  0  0  0  0  0  0  0
    1.7496    1.2062   -3.2889 C   0  0  0  0  0  0  0  0  0  0  0  0
    0.8972   -0.0876   -3.2044 C   0  0  0  0  0  0  0  0  0  0  0  0
    1.8869   -1.1474   -2.6988 C   0  0  0  0  0  0  0  0  0  0  0  0
    3.1658   -0.3246   -2.4762 C   0  0  0  0  0  0  0  0  0  0  0  0
    3.0965    0.6069   -3.6988 C   0  0  0  0  0  0  0  0  0  0  0  0
    4.4265   -1.1818   -2.4653 C   0  0  0  0  0  0  0  0  0  0  0  0
    0.7640    2.2063   -1.1462 C   0  0  0  0  0  0  0  0  0  0  0  0
    2.8069    3.1693   -2.0115 C   0  0  0  0  0  0  0  0  0  0  0  0
    4.2975    1.2063   -1.0026 O   0  0  0  0  0  0  0  0  0  0  0  0
    1.0009   -1.0342    1.1767 H   0  0  0  0  0  0  0  0  0  0  0  0
    0.5021   -0.5800   -0.4398 H   0  0  0  0  0  0  0  0  0  0  0  0
    0.6594    0.6378    0.8367 H   0  0  0  0  0  0  0  0  0  0  0  0
    3.0692   -1.0127    0.0950 H   0  0  0  0  0  0  0  0  0  0  0  0
    3.0104    0.5062    0.9198 H   0  0  0  0  0  0  0  0  0  0  0  0
    1.3415    1.9337   -3.9948 H   0  0  0  0  0  0  0  0  0  0  0  0
    0.5432   -0.3751   -4.2010 H   0  0  0  0  0  0  0  0  0  0  0  0
    0.0118   -0.0058   -2.5734 H   0  0  0  0  0  0  0  0  0  0  0  0
    2.0305   -1.9157   -3.4681 H   0  0  0  0  0  0  0  0  0  0  0  0
    1.5564   -1.6823   -1.8076 H   0  0  0  0  0  0  0  0  0  0  0  0
    3.0409    0.0621   -4.6504 H   0  0  0  0  0  0  0  0  0  0  0  0
    3.9186    1.3229   -3.7634 H   0  0  0  0  0  0  0  0  0  0  0  0
    4.4688   -1.8221   -1.5795 H   0  0  0  0  0  0  0  0  0  0  0  0
    5.3348   -0.5695   -2.4857 H   0  0  0  0  0  0  0  0  0  0  0  0
    4.4660   -1.8343   -3.3456 H   0  0  0  0  0  0  0  0  0  0  0  0
    0.0127    1.4207   -1.1032 H   0  0  0  0  0  0  0  0  0  0  0  0
    0.2627    3.0394   -1.6535 H   0  0  0  0  0  0  0  0  0  0  0  0
    0.9865    2.5448   -0.1283 H   0  0  0  0  0  0  0  0  0  0  0  0
    3.7229    3.1123   -2.6032 H   0  0  0  0  0  0  0  0  0  0  0  0
    3.0741    3.5555   -1.0192 H   0  0  0  0  0  0  0  0  0  0  0  0
    2.1684    3.9259   -2.4835 H   0  0  0  0  0  0  0  0  0  0  0  0
    4.2387    1.8201   -0.2429 H   0  0  0  0  0  0  0  0  0  0  0  0
  1  2  1  0  0  0  0
  1 14  1  0  0  0  0
  1 15  1  0  0  0  0
  1 16  1  0  0  0  0
  2  3  1  0  0  0  0
  2 17  1  0  0  0  0
  2 18  1  0  0  0  0
  3  4  1  0  0  0  0
  3  8  1  0  0  0  0
  3 13  1  0  0  0  0
  4  5  1  0  0  0  0
  4 11  1  0  0  0  0
  4 12  1  0  0  0  0
  5  6  1  0  0  0  0
  5  9  1  0  0  0  0
  5 19  1  0  0  0  0
  6  7  1  0  0  0  0
  6 20  1  0  0  0  0
  6 21  1  0  0  0  0
  7  8  1  0  0  0  0
  7 22  1  0  0  0  0
  7 23  1  0  0  0  0
  8  9  1  0  0  0  0
  8 10  1  0  0  0  0
  9 24  1  0  0  0  0
  9 25  1  0  0  0  0
 10 26  1  0  0  0  0
 10 27  1  0  0  0  0
 10 28  1  0  0  0  0
 11 29  1  0  0  0  0
 11 30  1  0  0  0  0
 11 31  1  0  0  0  0
 12 32  1  0  0  0  0
 12 33  1  0  0  0  0
 12 34  1  0  0  0  0
 13 35  1  0  0  0  0
M  END
$$$$
