
 OpenBabel07222214433D

 17 17  0  0  0  0  0  0  0  0999 V2000
    0.9971    0.0723   -0.0599 C   0  0  0  0  0  0  0  0  0  0  0  0
    2.5008    0.1102   -0.0733 C   0  0  0  0  0  0  0  0  0  0  0  0
    3.1397    0.3435   -1.1007 O   0  0  0  0  0  0  0  0  0  0  0  0
    3.2298   -0.1305    1.1953 C   0  0  0  0  0  0  0  0  0  0  0  0
    4.3903    0.6054    1.4632 C   0  0  0  0  0  0  0  0  0  0  0  0
    5.1751    0.2865    2.5728 C   0  0  0  0  0  0  0  0  0  0  0  0
    4.7732   -0.7267    3.4433 C   0  0  0  0  0  0  0  0  0  0  0  0
    3.6002   -1.4391    3.1938 C   0  0  0  0  0  0  0  0  0  0  0  0
    2.8285   -1.1462    2.0682 C   0  0  0  0  0  0  0  0  0  0  0  0
    0.6257    0.2441   -1.0754 H   0  0  0  0  0  0  0  0  0  0  0  0
    0.6155    0.8676    0.5855 H   0  0  0  0  0  0  0  0  0  0  0  0
    0.6264   -0.9010    0.2674 H   0  0  0  0  0  0  0  0  0  0  0  0
    4.6930    1.4152    0.8021 H   0  0  0  0  0  0  0  0  0  0  0  0
    6.1117    0.8111    2.7461 H   0  0  0  0  0  0  0  0  0  0  0  0
    5.3807   -0.9688    4.3122 H   0  0  0  0  0  0  0  0  0  0  0  0
    3.3031   -2.2456    3.8597 H   0  0  0  0  0  0  0  0  0  0  0  0
    1.9475   -1.7471    1.8669 H   0  0  0  0  0  0  0  0  0  0  0  0
  1  2  1  0  0  0  0
  1 10  1  0  0  0  0
  1 11  1  0  0  0  0
  1 12  1  0  0  0  0
  2  3  2  0  0  0  0
  2  4  1  0  0  0  0
  4  5  1  0  0  0  0
  4  9  2  0  0  0  0
  5  6  2  0  0  0  0
  5 13  1  0  0  0  0
  6  7  1  0  0  0  0
  6 14  1  0  0  0  0
  7  8  2  0  0  0  0
  7 15  1  0  0  0  0
  8  9  1  0  0  0  0
  8 16  1  0  0  0  0
  9 17  1  0  0  0  0
M  END
$$$$
