
 OpenBabel07222214433D

 38 39  0  0  1  0  0  0  0  0999 V2000
    0.9116    0.0910    0.1040 C   0  0  0  0  0  0  0  0  0  0  0  0
    2.4481   -0.0258    0.0237 C   0  0  2  0  0  0  0  0  0  0  0  0
    2.9777    1.0870   -0.8639 C   0  0  0  0  0  0  0  0  0  0  0  0
    4.4096    0.8302   -1.3020 C   0  0  0  0  0  0  0  0  0  0  0  0
    5.2175    1.7230   -1.3707 O   0  0  0  0  0  0  0  0  0  0  0  0
    4.7816   -0.5732   -1.7293 C   0  0  0  0  0  0  0  0  0  0  0  0
    4.2028   -1.6677   -1.1846 C   0  0  0  0  0  0  0  0  0  0  0  0
    2.8538   -1.4654   -0.4550 C   0  0  1  0  0  0  0  0  0  0  0  0
    2.5818   -2.4121    0.7207 C   0  0  0  0  0  0  0  0  0  0  0  0
    2.7096   -3.9022    0.3768 C   0  0  1  0  0  0  0  0  0  0  0  0
    4.0665   -4.1685   -0.4059 C   0  0  0  0  0  0  0  0  0  0  0  0
    4.4358   -3.1836   -1.6053 C   0  0  0  0  0  0  0  0  0  0  0  0
    2.4048   -4.7520    1.6126 C   0  0  0  0  0  0  0  0  0  0  0  0
    2.0437   -4.2545    2.8145 C   0  0  0  0  0  0  0  0  0  0  0  0
    2.3905   -6.2349    1.3924 C   0  0  0  0  0  0  0  0  0  0  0  0
    1.9974   -1.9823   -1.6187 C   0  0  0  0  0  0  0  0  0  0  0  0
    0.5759    1.1080    0.3156 H   0  0  0  0  0  0  0  0  0  0  0  0
    0.4877   -0.5538    0.8792 H   0  0  0  0  0  0  0  0  0  0  0  0
    0.4627   -0.2041   -0.8492 H   0  0  0  0  0  0  0  0  0  0  0  0
    2.8500    0.1702    1.0360 H   0  0  0  0  0  0  0  0  0  0  0  0
    2.9483    2.0360   -0.3048 H   0  0  0  0  0  0  0  0  0  0  0  0
    2.3495    1.2288   -1.7482 H   0  0  0  0  0  0  0  0  0  0  0  0
    5.4521   -0.5950   -2.5865 H   0  0  0  0  0  0  0  0  0  0  0  0
    1.5321   -2.2702    1.0177 H   0  0  0  0  0  0  0  0  0  0  0  0
    3.1838   -2.1435    1.6004 H   0  0  0  0  0  0  0  0  0  0  0  0
    1.8626   -4.1797   -0.2776 H   0  0  0  0  0  0  0  0  0  0  0  0
    4.0475   -5.2033   -0.7832 H   0  0  0  0  0  0  0  0  0  0  0  0
    4.8788   -4.1022    0.3186 H   0  0  0  0  0  0  0  0  0  0  0  0
    3.7898   -3.4592   -2.4662 H   0  0  0  0  0  0  0  0  0  0  0  0
    5.4024   -3.3903   -2.0901 H   0  0  0  0  0  0  0  0  0  0  0  0
    1.9324   -3.1910    3.0114 H   0  0  0  0  0  0  0  0  0  0  0  0
    1.8314   -4.8870    3.6692 H   0  0  0  0  0  0  0  0  0  0  0  0
    2.5232   -6.4849    0.3353 H   0  0  0  0  0  0  0  0  0  0  0  0
    1.4319   -6.6733    1.6944 H   0  0  0  0  0  0  0  0  0  0  0  0
    3.2053   -6.6866    1.9596 H   0  0  0  0  0  0  0  0  0  0  0  0
    2.2867   -1.5840   -2.5975 H   0  0  0  0  0  0  0  0  0  0  0  0
    0.9603   -2.2613   -1.4862 H   0  0  0  0  0  0  0  0  0  0  0  0
    2.2958   -3.0058   -1.6979 H   0  0  0  0  0  0  0  0  0  0  0  0
  1  2  1  0  0  0  0
  1 17  1  0  0  0  0
  1 18  1  0  0  0  0
  1 19  1  0  0  0  0
  2  3  1  0  0  0  0
  2  8  1  0  0  0  0
  2 20  1  1  0  0  0
  3  4  1  0  0  0  0
  3 21  1  0  0  0  0
  3 22  1  0  0  0  0
  4  5  2  0  0  0  0
  4  6  1  0  0  0  0
  6  7  2  0  0  0  0
  6 23  1  0  0  0  0
  7  8  1  0  0  0  0
  7 12  1  0  0  0  0
  8  9  1  0  0  0  0
  8 16  1  6  0  0  0
  9 10  1  0  0  0  0
  9 24  1  0  0  0  0
  9 25  1  0  0  0  0
 10 11  1  0  0  0  0
 10 13  1  0  0  0  0
 10 26  1  6  0  0  0
 11 12  1  0  0  0  0
 11 27  1  0  0  0  0
 11 28  1  0  0  0  0
 12 29  1  0  0  0  0
 12 30  1  0  0  0  0
 13 14  2  0  0  0  0
 13 15  1  0  0  0  0
 14 31  1  0  0  0  0
 14 32  1  0  0  0  0
 15 33  1  0  0  0  0
 15 34  1  0  0  0  0
 15 35  1  0  0  0  0
 16 36  1  0  0  0  0
 16 37  1  0  0  0  0
 16 38  1  0  0  0  0
M  END
$$$$
