
 OpenBabel07122215493D

 31 31  0  0  0  0  0  0  0  0999 V2000
    1.0748    0.1624    0.3006 C   0  0  0  0  0  0  0  0  0  0  0  0
    2.5836    0.0912    0.0557 C   0  0  0  0  0  0  0  0  0  0  0  0
    3.2042   -0.7645    1.1774 C   0  0  0  0  0  0  0  0  0  0  0  0
    3.0157   -0.2986   -1.4121 C   0  0  0  0  0  0  0  0  0  0  0  0
    3.6169   -1.7121   -1.5089 C   0  0  0  0  0  0  0  0  0  0  0  0
    2.5385   -2.7770   -1.3287 C   0  0  0  0  0  0  0  0  0  0  0  0
    1.4329   -2.6663   -2.3765 C   0  0  0  0  0  0  0  0  0  0  0  0
    1.9345   -3.1815   -3.7174 C   0  0  0  0  0  0  0  0  0  0  0  0
    0.8557   -1.2432   -2.4859 C   0  0  0  0  0  0  0  0  0  0  0  0
    1.9090   -0.1205   -2.4931 C   0  0  0  0  0  0  0  0  0  0  0  0
    2.4694   -0.0224   -3.8042 O   0  0  0  0  0  0  0  0  0  0  0  0
    0.8509    0.5882    1.2819 H   0  0  0  0  0  0  0  0  0  0  0  0
    0.6326   -0.8372    0.2880 H   0  0  0  0  0  0  0  0  0  0  0  0
    0.5689    0.8002   -0.4296 H   0  0  0  0  0  0  0  0  0  0  0  0
    2.9591    1.1121    0.2118 H   0  0  0  0  0  0  0  0  0  0  0  0
    2.9042   -1.8135    1.1339 H   0  0  0  0  0  0  0  0  0  0  0  0
    2.8715   -0.4191    2.1603 H   0  0  0  0  0  0  0  0  0  0  0  0
    4.2962   -0.7322    1.1530 H   0  0  0  0  0  0  0  0  0  0  0  0
    3.8355    0.3863   -1.6829 H   0  0  0  0  0  0  0  0  0  0  0  0
    4.4247   -1.8480   -0.7819 H   0  0  0  0  0  0  0  0  0  0  0  0
    4.1155   -1.8429   -2.4767 H   0  0  0  0  0  0  0  0  0  0  0  0
    2.0543   -2.6970   -0.3541 H   0  0  0  0  0  0  0  0  0  0  0  0
    3.0024   -3.7693   -1.3413 H   0  0  0  0  0  0  0  0  0  0  0  0
    0.6158   -3.3276   -2.0573 H   0  0  0  0  0  0  0  0  0  0  0  0
    2.8168   -2.6464   -4.0690 H   0  0  0  0  0  0  0  0  0  0  0  0
    1.1560   -3.0888   -4.4773 H   0  0  0  0  0  0  0  0  0  0  0  0
    2.2217   -4.2329   -3.6297 H   0  0  0  0  0  0  0  0  0  0  0  0
    0.1658   -1.1034   -1.6506 H   0  0  0  0  0  0  0  0  0  0  0  0
    0.2151   -1.1691   -3.3722 H   0  0  0  0  0  0  0  0  0  0  0  0
    1.4153    0.8480   -2.3609 H   0  0  0  0  0  0  0  0  0  0  0  0
    3.1137   -0.7416   -3.9343 H   0  0  0  0  0  0  0  0  0  0  0  0
  1  2  1  0  0  0  0
  1 12  1  0  0  0  0
  1 13  1  0  0  0  0
  1 14  1  0  0  0  0
  2  3  1  0  0  0  0
  2  4  1  0  0  0  0
  2 15  1  0  0  0  0
  3 16  1  0  0  0  0
  3 17  1  0  0  0  0
  3 18  1  0  0  0  0
  4  5  1  0  0  0  0
  4 10  1  0  0  0  0
  4 19  1  0  0  0  0
  5  6  1  0  0  0  0
  5 20  1  0  0  0  0
  5 21  1  0  0  0  0
  6  7  1  0  0  0  0
  6 22  1  0  0  0  0
  6 23  1  0  0  0  0
  7  8  1  0  0  0  0
  7  9  1  0  0  0  0
  7 24  1  0  0  0  0
  8 25  1  0  0  0  0
  8 26  1  0  0  0  0
  8 27  1  0  0  0  0
  9 10  1  0  0  0  0
  9 28  1  0  0  0  0
  9 29  1  0  0  0  0
 10 11  1  0  0  0  0
 10 30  1  0  0  0  0
 11 31  1  0  0  0  0
M  END
$$$$
