
 OpenBabel07122215493D

 29 28  0  0  0  0  0  0  0  0999 V2000
    0.9234    0.0420    0.0508 C   0  0  0  0  0  0  0  0  0  0  0  0
    2.4393    0.0467    0.0559 C   0  0  0  0  0  0  0  0  0  0  0  0
    2.9635    1.0077    1.1131 C   0  0  0  0  0  0  0  0  0  0  0  0
    4.4840    1.0126    1.1185 C   0  0  0  0  0  0  0  0  0  0  0  0
    5.0011    1.9731    2.1750 C   0  0  0  0  0  0  0  0  0  0  0  0
    6.5229    1.9798    2.1824 C   0  0  0  0  0  0  0  0  0  0  0  0
    7.0161    2.9462    3.2455 C   0  0  0  0  0  0  0  0  0  0  0  0
    8.5327    2.9974    3.3018 C   0  0  0  0  0  0  0  0  0  0  0  0
    9.1061    3.9382    4.3367 C   0  0  0  0  0  0  0  0  0  0  0  0
    8.2345    4.6290    5.0966 O   0  0  0  0  0  0  0  0  0  0  0  0
   10.3156    4.0731    4.4851 O   0  0  0  0  0  0  0  0  0  0  0  0
    0.5494   -0.6488   -0.7092 H   0  0  0  0  0  0  0  0  0  0  0  0
    0.5347    1.0416   -0.1685 H   0  0  0  0  0  0  0  0  0  0  0  0
    0.5347   -0.2713    1.0250 H   0  0  0  0  0  0  0  0  0  0  0  0
    2.8103    0.3413   -0.9327 H   0  0  0  0  0  0  0  0  0  0  0  0
    2.8103   -0.9655    0.2552 H   0  0  0  0  0  0  0  0  0  0  0  0
    2.5910    0.7144    2.1025 H   0  0  0  0  0  0  0  0  0  0  0  0
    2.5910    2.0205    0.9152 H   0  0  0  0  0  0  0  0  0  0  0  0
    4.8602    1.3100    0.1322 H   0  0  0  0  0  0  0  0  0  0  0  0
    4.8602    0.0026    1.3208 H   0  0  0  0  0  0  0  0  0  0  0  0
    4.6248    1.6788    3.1630 H   0  0  0  0  0  0  0  0  0  0  0  0
    4.6248    2.9845    1.9760 H   0  0  0  0  0  0  0  0  0  0  0  0
    6.8999    2.2786    1.1970 H   0  0  0  0  0  0  0  0  0  0  0  0
    6.8999    0.9704    2.3862 H   0  0  0  0  0  0  0  0  0  0  0  0
    6.6208    2.6368    4.2210 H   0  0  0  0  0  0  0  0  0  0  0  0
    6.6208    3.9467    3.0302 H   0  0  0  0  0  0  0  0  0  0  0  0
    8.9191    3.3077    2.3234 H   0  0  0  0  0  0  0  0  0  0  0  0
    8.9191    1.9939    3.5177 H   0  0  0  0  0  0  0  0  0  0  0  0
    7.2845    4.4865    4.9399 H   0  0  0  0  0  0  0  0  0  0  0  0
  1  2  1  0  0  0  0
  1 12  1  0  0  0  0
  1 13  1  0  0  0  0
  1 14  1  0  0  0  0
  2  3  1  0  0  0  0
  2 15  1  0  0  0  0
  2 16  1  0  0  0  0
  3  4  1  0  0  0  0
  3 17  1  0  0  0  0
  3 18  1  0  0  0  0
  4  5  1  0  0  0  0
  4 19  1  0  0  0  0
  4 20  1  0  0  0  0
  5  6  1  0  0  0  0
  5 21  1  0  0  0  0
  5 22  1  0  0  0  0
  6  7  1  0  0  0  0
  6 23  1  0  0  0  0
  6 24  1  0  0  0  0
  7  8  1  0  0  0  0
  7 25  1  0  0  0  0
  7 26  1  0  0  0  0
  8  9  1  0  0  0  0
  8 27  1  0  0  0  0
  8 28  1  0  0  0  0
  9 10  1  0  0  0  0
  9 11  2  0  0  0  0
 10 29  1  0  0  0  0
M  END
$$$$
