
 OpenBabel07202215583D

 26 25  0  0  0  0  0  0  0  0999 V2000
    0.8994    0.0724    0.0216 C   0  0  0  0  0  0  0  0  0  0  0  0
    2.4137    0.0711    0.0308 C   0  0  0  0  0  0  0  0  0  0  0  0
    2.9694   -0.1207    1.4130 C   0  0  0  0  0  0  0  0  0  0  0  0
    4.2878   -0.1546    1.6572 C   0  0  0  0  0  0  0  0  0  0  0  0
    5.3018   -0.0028    0.5633 C   0  0  0  0  0  0  0  0  0  0  0  0
    6.7246   -0.0760    1.0908 C   0  0  0  0  0  0  0  0  0  0  0  0
    7.7197    0.0829   -0.0539 C   0  0  0  0  0  0  0  0  0  0  0  0
    9.1435    0.0096    0.4742 C   0  0  0  0  0  0  0  0  0  0  0  0
   10.1426    0.1639   -0.6377 C   0  0  0  0  0  0  0  0  0  0  0  0
   11.3562    0.1371   -0.4445 O   0  0  0  0  0  0  0  0  0  0  0  0
    0.5339    0.2142   -0.9997 H   0  0  0  0  0  0  0  0  0  0  0  0
    0.5075    0.8832    0.6436 H   0  0  0  0  0  0  0  0  0  0  0  0
    0.5075   -0.8771    0.3992 H   0  0  0  0  0  0  0  0  0  0  0  0
    2.7702    1.0236   -0.3797 H   0  0  0  0  0  0  0  0  0  0  0  0
    2.7702   -0.7336   -0.6236 H   0  0  0  0  0  0  0  0  0  0  0  0
    2.2765   -0.2360    2.2437 H   0  0  0  0  0  0  0  0  0  0  0  0
    4.6350   -0.2964    2.6787 H   0  0  0  0  0  0  0  0  0  0  0  0
    5.1551    0.9626    0.0630 H   0  0  0  0  0  0  0  0  0  0  0  0
    5.1551   -0.7954   -0.1810 H   0  0  0  0  0  0  0  0  0  0  0  0
    6.8854   -1.0380    1.5930 H   0  0  0  0  0  0  0  0  0  0  0  0
    6.8854    0.7128    1.8360 H   0  0  0  0  0  0  0  0  0  0  0  0
    7.5556    1.0415   -0.5629 H   0  0  0  0  0  0  0  0  0  0  0  0
    7.5556   -0.7009   -0.8048 H   0  0  0  0  0  0  0  0  0  0  0  0
    9.3138   -0.9582    0.9570 H   0  0  0  0  0  0  0  0  0  0  0  0
    9.3138    0.8093    1.2024 H   0  0  0  0  0  0  0  0  0  0  0  0
    9.7390    0.3050   -1.6541 H   0  0  0  0  0  0  0  0  0  0  0  0
  1  2  1  0  0  0  0
  1 11  1  0  0  0  0
  1 12  1  0  0  0  0
  1 13  1  0  0  0  0
  2  3  1  0  0  0  0
  2 14  1  0  0  0  0
  2 15  1  0  0  0  0
  3  4  2  0  0  0  0
  3 16  1  0  0  0  0
  4  5  1  0  0  0  0
  4 17  1  0  0  0  0
  5  6  1  0  0  0  0
  5 18  1  0  0  0  0
  5 19  1  0  0  0  0
  6  7  1  0  0  0  0
  6 20  1  0  0  0  0
  6 21  1  0  0  0  0
  7  8  1  0  0  0  0
  7 22  1  0  0  0  0
  7 23  1  0  0  0  0
  8  9  1  0  0  0  0
  8 24  1  0  0  0  0
  8 25  1  0  0  0  0
  9 10  2  0  0  0  0
  9 26  1  0  0  0  0
M  END
$$$$
