
 OpenBabel07122215493D

 29 28  0  0  0  0  0  0  0  0999 V2000
    1.0385    0.0019   -0.0876 C   0  0  0  0  0  0  0  0  0  0  0  0
    2.5545    0.0056   -0.0855 C   0  0  0  0  0  0  0  0  0  0  0  0
    3.0849    1.2454    0.6190 C   0  0  0  0  0  0  0  0  0  0  0  0
    4.6081    1.2451    0.6188 C   0  0  0  0  0  0  0  0  0  0  0  0
    5.1230    2.4872    1.3246 C   0  0  0  0  0  0  0  0  0  0  0  0
    6.6207    2.5367    1.3528 C   0  0  0  0  0  0  0  0  0  0  0  0
    7.2896    3.5471    1.9270 C   0  0  0  0  0  0  0  0  0  0  0  0
    6.5888    4.7023    2.5834 C   0  0  0  0  0  0  0  0  0  0  0  0
    7.5677    5.7107    3.1564 C   0  0  0  0  0  0  0  0  0  0  0  0
    6.8297    6.8493    3.8034 C   0  0  0  0  0  0  0  0  0  0  0  0
    7.4079    7.7925    4.3394 O   0  0  0  0  0  0  0  0  0  0  0  0
    0.6636   -0.8908   -0.5949 H   0  0  0  0  0  0  0  0  0  0  0  0
    0.6499    0.8837   -0.6069 H   0  0  0  0  0  0  0  0  0  0  0  0
    0.6499    0.0072    0.9357 H   0  0  0  0  0  0  0  0  0  0  0  0
    2.9242   -0.0222   -1.1171 H   0  0  0  0  0  0  0  0  0  0  0  0
    2.9242   -0.8949    0.4186 H   0  0  0  0  0  0  0  0  0  0  0  0
    2.7135    1.2765    1.6512 H   0  0  0  0  0  0  0  0  0  0  0  0
    2.7135    2.1481    0.1174 H   0  0  0  0  0  0  0  0  0  0  0  0
    4.9810    1.2199   -0.4124 H   0  0  0  0  0  0  0  0  0  0  0  0
    4.9810    0.3463    1.1250 H   0  0  0  0  0  0  0  0  0  0  0  0
    4.7388    2.4999    2.3524 H   0  0  0  0  0  0  0  0  0  0  0  0
    4.7388    3.3766    0.8095 H   0  0  0  0  0  0  0  0  0  0  0  0
    7.1777    1.7238    0.8909 H   0  0  0  0  0  0  0  0  0  0  0  0
    8.3775    3.5281    1.9161 H   0  0  0  0  0  0  0  0  0  0  0  0
    5.9414    4.3278    3.3873 H   0  0  0  0  0  0  0  0  0  0  0  0
    5.9414    5.2012    1.8502 H   0  0  0  0  0  0  0  0  0  0  0  0
    8.1990    6.1180    2.3601 H   0  0  0  0  0  0  0  0  0  0  0  0
    8.1990    5.2351    3.9139 H   0  0  0  0  0  0  0  0  0  0  0  0
    5.7273    6.8093    3.7807 H   0  0  0  0  0  0  0  0  0  0  0  0
  1  2  1  0  0  0  0
  1 12  1  0  0  0  0
  1 13  1  0  0  0  0
  1 14  1  0  0  0  0
  2  3  1  0  0  0  0
  2 15  1  0  0  0  0
  2 16  1  0  0  0  0
  3  4  1  0  0  0  0
  3 17  1  0  0  0  0
  3 18  1  0  0  0  0
  4  5  1  0  0  0  0
  4 19  1  0  0  0  0
  4 20  1  0  0  0  0
  5  6  1  0  0  0  0
  5 21  1  0  0  0  0
  5 22  1  0  0  0  0
  6  7  2  0  0  0  0
  6 23  1  0  0  0  0
  7  8  1  0  0  0  0
  7 24  1  0  0  0  0
  8  9  1  0  0  0  0
  8 25  1  0  0  0  0
  8 26  1  0  0  0  0
  9 10  1  0  0  0  0
  9 27  1  0  0  0  0
  9 28  1  0  0  0  0
 10 11  2  0  0  0  0
 10 29  1  0  0  0  0
M  END
$$$$
