
 OpenBabel07122215493D

 17 16  0  0  0  0  0  0  0  0999 V2000
    0.9721    0.0697    0.0778 C   0  0  0  0  0  0  0  0  0  0  0  0
    2.4933    0.0741    0.0800 C   0  0  0  0  0  0  0  0  0  0  0  0
    3.0703    1.3442    0.7098 C   0  0  0  0  0  0  0  0  0  0  0  0
    4.5939    1.3363    0.7058 C   0  0  0  0  0  0  0  0  0  0  0  0
    5.2796    0.4258    0.2543 O   0  0  0  0  0  0  0  0  0  0  0  0
    5.3222    2.7782    1.4208 S   0  0  0  0  0  0  0  0  0  0  0  0
    7.0883    2.4134    1.2399 C   0  0  0  0  0  0  0  0  0  0  0  0
    0.5974   -0.8525   -0.3795 H   0  0  0  0  0  0  0  0  0  0  0  0
    0.5760    0.9146   -0.4943 H   0  0  0  0  0  0  0  0  0  0  0  0
    0.5760    0.1257    1.0966 H   0  0  0  0  0  0  0  0  0  0  0  0
    2.8519   -0.0243   -0.9515 H   0  0  0  0  0  0  0  0  0  0  0  0
    2.8519   -0.8065    0.6260 H   0  0  0  0  0  0  0  0  0  0  0  0
    2.7163    1.4293    1.7444 H   0  0  0  0  0  0  0  0  0  0  0  0
    2.7163    2.2192    0.1512 H   0  0  0  0  0  0  0  0  0  0  0  0
    7.6614    3.2497    1.6546 H   0  0  0  0  0  0  0  0  0  0  0  0
    7.3717    2.3047    0.1889 H   0  0  0  0  0  0  0  0  0  0  0  0
    7.3717    1.5110    1.7896 H   0  0  0  0  0  0  0  0  0  0  0  0
  1  2  1  0  0  0  0
  1  8  1  0  0  0  0
  1  9  1  0  0  0  0
  1 10  1  0  0  0  0
  2  3  1  0  0  0  0
  2 11  1  0  0  0  0
  2 12  1  0  0  0  0
  3  4  1  0  0  0  0
  3 13  1  0  0  0  0
  3 14  1  0  0  0  0
  4  5  2  0  0  0  0
  4  6  1  0  0  0  0
  6  7  1  0  0  0  0
  7 15  1  0  0  0  0
  7 16  1  0  0  0  0
  7 17  1  0  0  0  0
M  END
$$$$
