
 OpenBabel07122215493D

 24 24  0  0  0  0  0  0  0  0999 V2000
    0.9989   -0.0040    0.0699 C   0  0  0  0  0  0  0  0  0  0  0  0
    2.4221    0.0217    0.0849 O   0  0  0  0  0  0  0  0  0  0  0  0
    3.0192    1.2581    0.0803 C   0  0  0  0  0  0  0  0  0  0  0  0
    4.4279    1.2128    0.0629 C   0  0  0  0  0  0  0  0  0  0  0  0
    5.1997    2.3877    0.0414 C   0  0  0  0  0  0  0  0  0  0  0  0
    6.6750    2.3108    0.0209 C   0  0  0  0  0  0  0  0  0  0  0  0
    7.4970    3.3783   -0.0037 C   0  0  0  0  0  0  0  0  0  0  0  0
    8.9860    3.3123   -0.0243 C   0  0  0  0  0  0  0  0  0  0  0  0
    4.5223    3.6130    0.0397 C   0  0  0  0  0  0  0  0  0  0  0  0
    3.1314    3.6756    0.0681 C   0  0  0  0  0  0  0  0  0  0  0  0
    2.3813    2.5051    0.0908 C   0  0  0  0  0  0  0  0  0  0  0  0
    1.0198    2.6239    0.1247 O   0  0  0  0  0  0  0  0  0  0  0  0
    0.6716   -1.0469    0.0576 H   0  0  0  0  0  0  0  0  0  0  0  0
    0.6046    0.4658   -0.8383 H   0  0  0  0  0  0  0  0  0  0  0  0
    0.5895    0.4474    0.9803 H   0  0  0  0  0  0  0  0  0  0  0  0
    4.9145    0.2384    0.0651 H   0  0  0  0  0  0  0  0  0  0  0  0
    7.1059    1.3120    0.0271 H   0  0  0  0  0  0  0  0  0  0  0  0
    7.1088    4.3902   -0.0103 H   0  0  0  0  0  0  0  0  0  0  0  0
    9.3588    2.2853   -0.0170 H   0  0  0  0  0  0  0  0  0  0  0  0
    9.3869    3.8357    0.8497 H   0  0  0  0  0  0  0  0  0  0  0  0
    9.3612    3.8137   -0.9224 H   0  0  0  0  0  0  0  0  0  0  0  0
    5.0586    4.5552    0.0176 H   0  0  0  0  0  0  0  0  0  0  0  0
    2.6567    4.6512    0.0707 H   0  0  0  0  0  0  0  0  0  0  0  0
    0.7723    3.5613    0.1503 H   0  0  0  0  0  0  0  0  0  0  0  0
  1  2  1  0  0  0  0
  1 13  1  0  0  0  0
  1 14  1  0  0  0  0
  1 15  1  0  0  0  0
  2  3  1  0  0  0  0
  3  4  1  0  0  0  0
  3 11  2  0  0  0  0
  4  5  2  0  0  0  0
  4 16  1  0  0  0  0
  5  6  1  0  0  0  0
  5  9  1  0  0  0  0
  6  7  2  0  0  0  0
  6 17  1  0  0  0  0
  7  8  1  0  0  0  0
  7 18  1  0  0  0  0
  8 19  1  0  0  0  0
  8 20  1  0  0  0  0
  8 21  1  0  0  0  0
  9 10  2  0  0  0  0
  9 22  1  0  0  0  0
 10 11  1  0  0  0  0
 10 23  1  0  0  0  0
 11 12  1  0  0  0  0
 12 24  1  0  0  0  0
M  END
$$$$
