
 OpenBabel07202215583D

 27 26  0  0  0  0  0  0  0  0999 V2000
    1.0161   -0.0249    0.0162 C   0  0  0  0  0  0  0  0  0  0  0  0
    2.5235   -0.0754    0.0608 C   0  0  0  0  0  0  0  0  0  0  0  0
    3.2075   -0.9449    0.8288 C   0  0  0  0  0  0  0  0  0  0  0  0
    2.5089   -1.9333    1.7019 C   0  0  0  0  0  0  0  0  0  0  0  0
    3.4115   -2.8564    2.5173 C   0  0  0  0  0  0  0  0  0  0  0  0
    2.6300   -3.8372    3.3836 C   0  0  0  0  0  0  0  0  0  0  0  0
    1.2815   -3.8726    3.4149 C   0  0  0  0  0  0  0  0  0  0  0  0
    0.4866   -4.8035    4.2372 C   0  0  0  0  0  0  0  0  0  0  0  0
   -0.7401   -4.7743    4.2114 O   0  0  0  0  0  0  0  0  0  0  0  0
    3.4645   -4.7739    4.2110 C   0  0  0  0  0  0  0  0  0  0  0  0
    3.2599    0.9036   -0.8040 C   0  0  0  0  0  0  0  0  0  0  0  0
    0.5377   -0.7630    0.6682 H   0  0  0  0  0  0  0  0  0  0  0  0
    0.6570   -0.2266   -0.9969 H   0  0  0  0  0  0  0  0  0  0  0  0
    0.6570    0.9555    0.3414 H   0  0  0  0  0  0  0  0  0  0  0  0
    4.2949   -0.9409    0.8253 H   0  0  0  0  0  0  0  0  0  0  0  0
    1.8727   -2.5553    1.0576 H   0  0  0  0  0  0  0  0  0  0  0  0
    1.8727   -1.3708    2.3987 H   0  0  0  0  0  0  0  0  0  0  0  0
    4.0624   -2.2469    3.1575 H   0  0  0  0  0  0  0  0  0  0  0  0
    4.0624   -3.4165    1.8333 H   0  0  0  0  0  0  0  0  0  0  0  0
    0.6561   -3.2079    2.8277 H   0  0  0  0  0  0  0  0  0  0  0  0
    1.0421   -5.5134    4.8642 H   0  0  0  0  0  0  0  0  0  0  0  0
    4.5359   -4.6091    4.0654 H   0  0  0  0  0  0  0  0  0  0  0  0
    3.2493   -5.8121    3.9369 H   0  0  0  0  0  0  0  0  0  0  0  0
    3.2493   -4.6301    5.2751 H   0  0  0  0  0  0  0  0  0  0  0  0
    2.5685    1.5392   -1.3654 H   0  0  0  0  0  0  0  0  0  0  0  0
    3.8913    0.3758   -1.5264 H   0  0  0  0  0  0  0  0  0  0  0  0
    3.8913    1.5553   -0.1911 H   0  0  0  0  0  0  0  0  0  0  0  0
  1  2  1  0  0  0  0
  1 12  1  0  0  0  0
  1 13  1  0  0  0  0
  1 14  1  0  0  0  0
  2  3  2  0  0  0  0
  2 11  1  0  0  0  0
  3  4  1  0  0  0  0
  3 15  1  0  0  0  0
  4  5  1  0  0  0  0
  4 16  1  0  0  0  0
  4 17  1  0  0  0  0
  5  6  1  0  0  0  0
  5 18  1  0  0  0  0
  5 19  1  0  0  0  0
  6  7  2  0  0  0  0
  6 10  1  0  0  0  0
  7  8  1  0  0  0  0
  7 20  1  0  0  0  0
  8  9  2  0  0  0  0
  8 21  1  0  0  0  0
 10 22  1  0  0  0  0
 10 23  1  0  0  0  0
 10 24  1  0  0  0  0
 11 25  1  0  0  0  0
 11 26  1  0  0  0  0
 11 27  1  0  0  0  0
M  END
$$$$
