
 OpenBabel07122215493D

 23 23  0  0  0  0  0  0  0  0999 V2000
    1.0913   -0.0020    0.0280 C   0  0  0  0  0  0  0  0  0  0  0  0
    2.5099    0.0322   -0.1037 O   0  0  0  0  0  0  0  0  0  0  0  0
    3.1361    1.0901    0.4941 C   0  0  0  0  0  0  0  0  0  0  0  0
    4.3237    1.5257   -0.0965 C   0  0  0  0  0  0  0  0  0  0  0  0
    5.0841    2.5450    0.4961 C   0  0  0  0  0  0  0  0  0  0  0  0
    4.6390    3.1793    1.6645 C   0  0  0  0  0  0  0  0  0  0  0  0
    5.3893    4.3227    2.2138 C   0  0  0  0  0  0  0  0  0  0  0  0
    5.0004    5.0467    3.2819 C   0  0  0  0  0  0  0  0  0  0  0  0
    5.7203    6.2394    3.8077 C   0  0  0  0  0  0  0  0  0  0  0  0
    3.4568    2.7136    2.2515 C   0  0  0  0  0  0  0  0  0  0  0  0
    2.7144    1.6817    1.6782 C   0  0  0  0  0  0  0  0  0  0  0  0
    0.7433   -0.9658   -0.3547 H   0  0  0  0  0  0  0  0  0  0  0  0
    0.6451    0.7920   -0.5783 H   0  0  0  0  0  0  0  0  0  0  0  0
    0.7422    0.0626    1.0626 H   0  0  0  0  0  0  0  0  0  0  0  0
    4.6578    1.0781   -1.0296 H   0  0  0  0  0  0  0  0  0  0  0  0
    6.0238    2.8339    0.0302 H   0  0  0  0  0  0  0  0  0  0  0  0
    6.2915    4.6088    1.6792 H   0  0  0  0  0  0  0  0  0  0  0  0
    4.0980    4.8036    3.8304 H   0  0  0  0  0  0  0  0  0  0  0  0
    6.6094    6.4817    3.2206 H   0  0  0  0  0  0  0  0  0  0  0  0
    6.0214    6.0565    4.8436 H   0  0  0  0  0  0  0  0  0  0  0  0
    5.0490    7.1044    3.7942 H   0  0  0  0  0  0  0  0  0  0  0  0
    3.0809    3.1336    3.1781 H   0  0  0  0  0  0  0  0  0  0  0  0
    1.8252    1.3585    2.2047 H   0  0  0  0  0  0  0  0  0  0  0  0
  1  2  1  0  0  0  0
  1 12  1  0  0  0  0
  1 13  1  0  0  0  0
  1 14  1  0  0  0  0
  2  3  1  0  0  0  0
  3  4  1  0  0  0  0
  3 11  2  0  0  0  0
  4  5  2  0  0  0  0
  4 15  1  0  0  0  0
  5  6  1  0  0  0  0
  5 16  1  0  0  0  0
  6  7  1  0  0  0  0
  6 10  2  0  0  0  0
  7  8  2  0  0  0  0
  7 17  1  0  0  0  0
  8  9  1  0  0  0  0
  8 18  1  0  0  0  0
  9 19  1  0  0  0  0
  9 20  1  0  0  0  0
  9 21  1  0  0  0  0
 10 11  1  0  0  0  0
 10 22  1  0  0  0  0
 11 23  1  0  0  0  0
M  END
$$$$
