
 OpenBabel07222214433D

 29 29  0  0  1  0  0  0  0  0999 V2000
    5.4845   -1.7792    1.0919 C   0  0  0  0  0  0  0  0  0  0  0  0
    4.1484   -1.0561    1.2800 C   0  0  0  0  0  0  0  0  0  0  0  0
    3.6655   -1.2055    2.7428 C   0  0  0  0  0  0  0  0  0  0  0  0
    3.0214   -1.4496    0.2758 C   0  0  1  0  0  0  0  0  0  0  0  0
    3.3934   -1.8441   -1.1650 C   0  0  0  0  0  0  0  0  0  0  0  0
    4.1517   -3.1690   -1.2752 C   0  0  0  0  0  0  0  0  0  0  0  0
    3.5052   -4.3055   -0.4534 C   0  0  2  0  0  0  0  0  0  0  0  0
    2.2993   -4.8563   -1.2017 C   0  0  0  0  0  0  0  0  0  0  0  0
    3.0073   -3.9236    0.9419 C   0  0  0  0  0  0  0  0  0  0  0  0
    2.2545   -2.6095    0.8867 C   0  0  0  0  0  0  0  0  0  0  0  0
    1.1768   -2.4516    1.4408 O   0  0  0  0  0  0  0  0  0  0  0  0
    6.1800   -1.5775    1.9078 H   0  0  0  0  0  0  0  0  0  0  0  0
    5.9583   -1.4553    0.1603 H   0  0  0  0  0  0  0  0  0  0  0  0
    5.3948   -2.8646    1.0620 H   0  0  0  0  0  0  0  0  0  0  0  0
    4.3626    0.0093    1.1263 H   0  0  0  0  0  0  0  0  0  0  0  0
    3.3824   -2.2327    2.9998 H   0  0  0  0  0  0  0  0  0  0  0  0
    2.7837   -0.5805    2.9203 H   0  0  0  0  0  0  0  0  0  0  0  0
    4.4446   -0.9354    3.4569 H   0  0  0  0  0  0  0  0  0  0  0  0
    2.3250   -0.6007    0.1964 H   0  0  0  0  0  0  0  0  0  0  0  0
    3.9435   -1.0399   -1.6682 H   0  0  0  0  0  0  0  0  0  0  0  0
    2.4624   -1.9635   -1.7406 H   0  0  0  0  0  0  0  0  0  0  0  0
    5.1966   -3.0384   -0.9890 H   0  0  0  0  0  0  0  0  0  0  0  0
    4.2292   -3.4593   -2.3309 H   0  0  0  0  0  0  0  0  0  0  0  0
    4.2503   -5.1037   -0.3452 H   0  0  0  0  0  0  0  0  0  0  0  0
    1.5169   -4.0953   -1.2948 H   0  0  0  0  0  0  0  0  0  0  0  0
    1.8773   -5.7017   -0.6505 H   0  0  0  0  0  0  0  0  0  0  0  0
    2.5815   -5.1906   -2.2004 H   0  0  0  0  0  0  0  0  0  0  0  0
    3.8273   -3.8536    1.6587 H   0  0  0  0  0  0  0  0  0  0  0  0
    2.3465   -4.6859    1.3652 H   0  0  0  0  0  0  0  0  0  0  0  0
  1  2  1  0  0  0  0
  1 12  1  0  0  0  0
  1 13  1  0  0  0  0
  1 14  1  0  0  0  0
  2  3  1  0  0  0  0
  2 15  1  0  0  0  0
  3 16  1  0  0  0  0
  3 17  1  0  0  0  0
  3 18  1  0  0  0  0
  4  5  1  0  0  0  0
  4 10  1  0  0  0  0
  4  2  1  0  0  0  0
  4 19  1  6  0  0  0
  5  6  1  0  0  0  0
  5 20  1  0  0  0  0
  5 21  1  0  0  0  0
  6  7  1  0  0  0  0
  6 22  1  0  0  0  0
  6 23  1  0  0  0  0
  7  8  1  0  0  0  0
  7  9  1  0  0  0  0
  7 24  1  1  0  0  0
  8 25  1  0  0  0  0
  8 26  1  0  0  0  0
  8 27  1  0  0  0  0
  9 10  1  0  0  0  0
  9 28  1  0  0  0  0
  9 29  1  0  0  0  0
 10 11  2  0  0  0  0
M  END
$$$$
