
 OpenBabel07222214433D

 27 26  0  0  0  0  0  0  0  0999 V2000
    0.8969   -0.0065    0.0312 C   0  0  0  0  0  0  0  0  0  0  0  0
    2.4155    0.0048    0.0353 C   0  0  0  0  0  0  0  0  0  0  0  0
    2.9460    1.3541    0.5128 C   0  0  0  0  0  0  0  0  0  0  0  0
    4.4750    1.3726    0.5193 C   0  0  0  0  0  0  0  0  0  0  0  0
    5.0051    2.6938    0.9869 C   0  0  0  0  0  0  0  0  0  0  0  0
    6.3148    2.9704    1.0848 C   0  0  0  0  0  0  0  0  0  0  0  0
    6.7491    4.3177    1.5617 C   0  0  0  0  0  0  0  0  0  0  0  0
    5.9086    5.1667    1.8621 O   0  0  0  0  0  0  0  0  0  0  0  0
    8.2575    4.5596    1.6473 C   0  0  0  0  0  0  0  0  0  0  0  0
    8.5760    5.9463    2.1381 C   0  0  0  0  0  0  0  0  0  0  0  0
    9.8198    6.4129    2.3032 C   0  0  0  0  0  0  0  0  0  0  0  0
    0.5240   -0.9758   -0.3118 H   0  0  0  0  0  0  0  0  0  0  0  0
    0.5043    0.7677   -0.6357 H   0  0  0  0  0  0  0  0  0  0  0  0
    0.5043    0.1758    1.0368 H   0  0  0  0  0  0  0  0  0  0  0  0
    2.7839   -0.2051   -0.9756 H   0  0  0  0  0  0  0  0  0  0  0  0
    2.7839   -0.7943    0.6890 H   0  0  0  0  0  0  0  0  0  0  0  0
    2.5658    1.5610    1.5217 H   0  0  0  0  0  0  0  0  0  0  0  0
    2.5658    2.1496   -0.1413 H   0  0  0  0  0  0  0  0  0  0  0  0
    4.8429    1.1714   -0.4936 H   0  0  0  0  0  0  0  0  0  0  0  0
    4.8429    0.5790    1.1802 H   0  0  0  0  0  0  0  0  0  0  0  0
    4.2764    3.4588    1.2577 H   0  0  0  0  0  0  0  0  0  0  0  0
    7.0771    2.2452    0.8282 H   0  0  0  0  0  0  0  0  0  0  0  0
    8.6845    4.4184    0.6476 H   0  0  0  0  0  0  0  0  0  0  0  0
    8.6845    3.8210    2.3356 H   0  0  0  0  0  0  0  0  0  0  0  0
    7.7430    6.6092    2.3727 H   0  0  0  0  0  0  0  0  0  0  0  0
   10.6924    5.8061    2.0885 H   0  0  0  0  0  0  0  0  0  0  0  0
    9.9812    7.4258    2.6617 H   0  0  0  0  0  0  0  0  0  0  0  0
  1  2  1  0  0  0  0
  1 12  1  0  0  0  0
  1 13  1  0  0  0  0
  1 14  1  0  0  0  0
  2  3  1  0  0  0  0
  2 15  1  0  0  0  0
  2 16  1  0  0  0  0
  3  4  1  0  0  0  0
  3 17  1  0  0  0  0
  3 18  1  0  0  0  0
  4  5  1  0  0  0  0
  4 19  1  0  0  0  0
  4 20  1  0  0  0  0
  5  6  2  0  0  0  0
  5 21  1  0  0  0  0
  6  7  1  0  0  0  0
  6 22  1  0  0  0  0
  7  8  2  0  0  0  0
  7  9  1  0  0  0  0
  9 10  1  0  0  0  0
  9 23  1  0  0  0  0
  9 24  1  0  0  0  0
 10 11  2  0  0  0  0
 10 25  1  0  0  0  0
 11 26  1  0  0  0  0
 11 27  1  0  0  0  0
M  END
$$$$
