
 OpenBabel07202215583D

 24 24  0  0  0  0  0  0  0  0999 V2000
    0.9966   -0.0454    0.0811 C   0  0  0  0  0  0  0  0  0  0  0  0
    2.5006   -0.0975    0.0579 C   0  0  0  0  0  0  0  0  0  0  0  0
    2.9507   -1.3501   -0.4997 O   0  0  0  0  0  0  0  0  0  0  0  0
    4.3134   -1.3488   -0.5653 C   0  0  0  0  0  0  0  0  0  0  0  0
    4.9405   -0.3587   -0.1956 O   0  0  0  0  0  0  0  0  0  0  0  0
    4.9134   -2.6431   -1.1283 C   0  0  0  0  0  0  0  0  0  0  0  0
    6.4460   -2.7267   -1.1259 C   0  0  0  0  0  0  0  0  0  0  0  0
    7.1213   -3.8258   -1.6826 C   0  0  0  0  0  0  0  0  0  0  0  0
    8.5184   -3.9436   -1.5533 C   0  0  0  0  0  0  0  0  0  0  0  0
    9.2700   -2.9395   -0.9428 C   0  0  0  0  0  0  0  0  0  0  0  0
    8.6274   -1.8358   -0.4252 C   0  0  0  0  0  0  0  0  0  0  0  0
    7.2456   -1.7518   -0.5072 C   0  0  0  0  0  0  0  0  0  0  0  0
    0.6556    0.9038    0.5065 H   0  0  0  0  0  0  0  0  0  0  0  0
    0.6014   -0.8693    0.6797 H   0  0  0  0  0  0  0  0  0  0  0  0
    0.6028   -0.1440   -0.9335 H   0  0  0  0  0  0  0  0  0  0  0  0
    2.8823    0.0077    1.0835 H   0  0  0  0  0  0  0  0  0  0  0  0
    2.8740    0.7414   -0.5474 H   0  0  0  0  0  0  0  0  0  0  0  0
    4.5491   -2.7684   -2.1563 H   0  0  0  0  0  0  0  0  0  0  0  0
    4.5394   -3.4814   -0.5244 H   0  0  0  0  0  0  0  0  0  0  0  0
    6.5843   -4.6122   -2.2105 H   0  0  0  0  0  0  0  0  0  0  0  0
    9.0319   -4.8300   -1.9168 H   0  0  0  0  0  0  0  0  0  0  0  0
   10.3495   -3.0071   -0.8620 H   0  0  0  0  0  0  0  0  0  0  0  0
    9.1647   -1.0322    0.0698 H   0  0  0  0  0  0  0  0  0  0  0  0
    6.8488   -0.8645   -0.0396 H   0  0  0  0  0  0  0  0  0  0  0  0
  1  2  1  0  0  0  0
  1 13  1  0  0  0  0
  1 14  1  0  0  0  0
  1 15  1  0  0  0  0
  2  3  1  0  0  0  0
  2 16  1  0  0  0  0
  2 17  1  0  0  0  0
  3  4  1  0  0  0  0
  4  5  2  0  0  0  0
  4  6  1  0  0  0  0
  6  7  1  0  0  0  0
  6 18  1  0  0  0  0
  6 19  1  0  0  0  0
  7  8  2  0  0  0  0
  7 12  1  0  0  0  0
  8  9  1  0  0  0  0
  8 20  1  0  0  0  0
  9 10  2  0  0  0  0
  9 21  1  0  0  0  0
 10 11  1  0  0  0  0
 10 22  1  0  0  0  0
 11 12  2  0  0  0  0
 11 23  1  0  0  0  0
 12 24  1  0  0  0  0
M  END
$$$$
