
 OpenBabel07222214433D

 24 24  0  0  1  0  0  0  0  0999 V2000
    0.8765    0.1150   -2.3021 C   0  0  0  0  0  0  0  0  0  0  0  0
    2.3982    0.1320   -2.5012 C   0  0  0  0  0  0  0  0  0  0  0  0
    3.0736   -0.5643   -1.3023 C   0  0  2  0  0  0  0  0  0  0  0  0
    2.5844    0.0677   -0.0003 C   0  0  0  0  0  0  0  0  0  0  0  0
    2.4948    1.4683    0.1322 C   0  0  0  0  0  0  0  0  0  0  0  0
    2.1188    2.0483    1.3347 C   0  0  0  0  0  0  0  0  0  0  0  0
    1.7817    1.2347    2.4088 C   0  0  0  0  0  0  0  0  0  0  0  0
    1.8284   -0.1550    2.2816 C   0  0  0  0  0  0  0  0  0  0  0  0
    2.2249   -0.7415    1.0812 C   0  0  0  0  0  0  0  0  0  0  0  0
    4.6058   -0.5594   -1.3377 C   0  0  0  0  0  0  0  0  0  0  0  0
    5.3244   -0.1243   -0.4381 O   0  0  0  0  0  0  0  0  0  0  0  0
    5.1600   -1.1469   -2.4203 O   0  0  0  0  0  0  0  0  0  0  0  0
    0.3477    0.6076   -3.1178 H   0  0  0  0  0  0  0  0  0  0  0  0
    0.5691    0.6342   -1.3879 H   0  0  0  0  0  0  0  0  0  0  0  0
    0.5283   -0.9180   -2.2033 H   0  0  0  0  0  0  0  0  0  0  0  0
    2.7628    1.1608   -2.6170 H   0  0  0  0  0  0  0  0  0  0  0  0
    2.6497   -0.3685   -3.4433 H   0  0  0  0  0  0  0  0  0  0  0  0
    2.7634   -1.6200   -1.3193 H   0  0  0  0  0  0  0  0  0  0  0  0
    2.6863    2.1287   -0.7102 H   0  0  0  0  0  0  0  0  0  0  0  0
    2.1027    3.1304    1.4253 H   0  0  0  0  0  0  0  0  0  0  0  0
    1.4815    1.6875    3.3480 H   0  0  0  0  0  0  0  0  0  0  0  0
    1.5730   -0.7839    3.1289 H   0  0  0  0  0  0  0  0  0  0  0  0
    2.2523   -1.8254    0.9978 H   0  0  0  0  0  0  0  0  0  0  0  0
    4.5392   -1.5165   -3.0724 H   0  0  0  0  0  0  0  0  0  0  0  0
  1  2  1  0  0  0  0
  1 13  1  0  0  0  0
  1 14  1  0  0  0  0
  1 15  1  0  0  0  0
  2 16  1  0  0  0  0
  2 17  1  0  0  0  0
  3 10  1  0  0  0  0
  3  4  1  0  0  0  0
  3  2  1  0  0  0  0
  3 18  1  6  0  0  0
  4  5  2  0  0  0  0
  4  9  1  0  0  0  0
  5  6  1  0  0  0  0
  5 19  1  0  0  0  0
  6  7  2  0  0  0  0
  6 20  1  0  0  0  0
  7  8  1  0  0  0  0
  7 21  1  0  0  0  0
  8  9  2  0  0  0  0
  8 22  1  0  0  0  0
  9 23  1  0  0  0  0
 10 11  2  0  0  0  0
 10 12  1  0  0  0  0
 12 24  1  0  0  0  0
M  END
$$$$
