
 OpenBabel07222214433D

 27 27  0  0  0  0  0  0  0  0999 V2000
    1.0433    0.0167   -0.0836 C   0  0  0  0  0  0  0  0  0  0  0  0
    2.5588    0.0248   -0.0771 C   0  0  0  0  0  0  0  0  0  0  0  0
    3.0783    1.0359    0.9367 C   0  0  0  0  0  0  0  0  0  0  0  0
    4.5972    1.0424    0.9433 C   0  0  0  0  0  0  0  0  0  0  0  0
    5.1291    2.0492    1.9540 C   0  0  0  0  0  0  0  0  0  0  0  0
    6.6512    2.0381    1.9740 C   0  0  0  0  0  0  0  0  0  0  0  0
    7.2161    0.7320    2.4904 C   0  0  0  0  0  0  0  0  0  0  0  0
    8.4822    1.1516    3.1869 C   0  0  0  0  0  0  0  0  0  0  0  0
    8.2270    2.5899    3.5207 C   0  0  0  0  0  0  0  0  0  0  0  0
    8.9208    3.2764    4.2498 O   0  0  0  0  0  0  0  0  0  0  0  0
    7.1207    3.0449    2.8684 O   0  0  0  0  0  0  0  0  0  0  0  0
    0.6708   -0.7079   -0.8121 H   0  0  0  0  0  0  0  0  0  0  0  0
    0.6540    1.0051   -0.3475 H   0  0  0  0  0  0  0  0  0  0  0  0
    0.6548   -0.2533    0.9035 H   0  0  0  0  0  0  0  0  0  0  0  0
    2.9309    0.2738   -1.0778 H   0  0  0  0  0  0  0  0  0  0  0  0
    2.9312   -0.9771    0.1681 H   0  0  0  0  0  0  0  0  0  0  0  0
    2.7065    0.7842    1.9377 H   0  0  0  0  0  0  0  0  0  0  0  0
    2.7051    2.0376    0.6926 H   0  0  0  0  0  0  0  0  0  0  0  0
    4.9745    1.2923   -0.0558 H   0  0  0  0  0  0  0  0  0  0  0  0
    4.9594    0.0354    1.1819 H   0  0  0  0  0  0  0  0  0  0  0  0
    4.7391    1.8285    2.9570 H   0  0  0  0  0  0  0  0  0  0  0  0
    4.7690    3.0577    1.7151 H   0  0  0  0  0  0  0  0  0  0  0  0
    7.0394    2.2688    0.9740 H   0  0  0  0  0  0  0  0  0  0  0  0
    7.3946    0.0093    1.6878 H   0  0  0  0  0  0  0  0  0  0  0  0
    6.5347    0.2589    3.2088 H   0  0  0  0  0  0  0  0  0  0  0  0
    9.3446    1.0796    2.5206 H   0  0  0  0  0  0  0  0  0  0  0  0
    8.6423    0.5670    4.0960 H   0  0  0  0  0  0  0  0  0  0  0  0
  1  2  1  0  0  0  0
  1 12  1  0  0  0  0
  1 13  1  0  0  0  0
  1 14  1  0  0  0  0
  2  3  1  0  0  0  0
  2 15  1  0  0  0  0
  2 16  1  0  0  0  0
  3  4  1  0  0  0  0
  3 17  1  0  0  0  0
  3 18  1  0  0  0  0
  4  5  1  0  0  0  0
  4 19  1  0  0  0  0
  4 20  1  0  0  0  0
  5  6  1  0  0  0  0
  5 21  1  0  0  0  0
  5 22  1  0  0  0  0
  6  7  1  0  0  0  0
  6 11  1  0  0  0  0
  6 23  1  0  0  0  0
  7  8  1  0  0  0  0
  7 24  1  0  0  0  0
  7 25  1  0  0  0  0
  8  9  1  0  0  0  0
  8 26  1  0  0  0  0
  8 27  1  0  0  0  0
  9 10  2  0  0  0  0
  9 11  1  0  0  0  0
M  END
$$$$
