
 OpenBabel07222214433D

 29 29  0  0  1  0  0  0  0  0999 V2000
    0.9751    0.1037    0.1265 C   0  0  0  0  0  0  0  0  0  0  0  0
    2.5010    0.1066    0.0825 C   0  0  2  0  0  0  0  0  0  0  0  0
    3.0482    1.1068   -0.9564 C   0  0  0  0  0  0  0  0  0  0  0  0
    2.7485    0.6725   -2.3925 C   0  0  0  0  0  0  0  0  0  0  0  0
    3.2884   -0.7473   -2.7135 C   0  0  2  0  0  0  0  0  0  0  0  0
    2.7169   -1.7270   -1.6621 C   0  0  0  0  0  0  0  0  0  0  0  0
    3.0090   -1.3092   -0.2002 C   0  0  1  0  0  0  0  0  0  0  0  0
    4.3823   -1.3418    0.1803 O   0  0  0  0  0  0  0  0  0  0  0  0
    4.8160   -0.8284   -2.8409 C   0  0  0  0  0  0  0  0  0  0  0  0
    5.5855   -1.7544   -2.2496 C   0  0  0  0  0  0  0  0  0  0  0  0
    5.5064    0.1870   -3.7051 C   0  0  0  0  0  0  0  0  0  0  0  0
    0.5999    1.0829    0.4300 H   0  0  0  0  0  0  0  0  0  0  0  0
    0.6197   -0.6445    0.8427 H   0  0  0  0  0  0  0  0  0  0  0  0
    0.5285   -0.1394   -0.8415 H   0  0  0  0  0  0  0  0  0  0  0  0
    2.8734    0.4191    1.0670 H   0  0  0  0  0  0  0  0  0  0  0  0
    4.1343    1.2188   -0.8447 H   0  0  0  0  0  0  0  0  0  0  0  0
    2.6296    2.1019   -0.7681 H   0  0  0  0  0  0  0  0  0  0  0  0
    3.1359    1.4233   -3.0897 H   0  0  0  0  0  0  0  0  0  0  0  0
    1.6611    0.6858   -2.5466 H   0  0  0  0  0  0  0  0  0  0  0  0
    2.8775   -1.0285   -3.6950 H   0  0  0  0  0  0  0  0  0  0  0  0
    3.0601   -2.7478   -1.8627 H   0  0  0  0  0  0  0  0  0  0  0  0
    1.6277   -1.7726   -1.8003 H   0  0  0  0  0  0  0  0  0  0  0  0
    2.5286   -2.0377    0.4596 H   0  0  0  0  0  0  0  0  0  0  0  0
    4.8469   -0.6313   -0.2983 H   0  0  0  0  0  0  0  0  0  0  0  0
    5.1859   -2.5662   -1.6429 H   0  0  0  0  0  0  0  0  0  0  0  0
    6.6700   -1.6939   -2.2567 H   0  0  0  0  0  0  0  0  0  0  0  0
    4.8074    0.7415   -4.3340 H   0  0  0  0  0  0  0  0  0  0  0  0
    6.2048   -0.3201   -4.3798 H   0  0  0  0  0  0  0  0  0  0  0  0
    6.0617    0.8946   -3.0821 H   0  0  0  0  0  0  0  0  0  0  0  0
  1  2  1  0  0  0  0
  1 12  1  0  0  0  0
  1 13  1  0  0  0  0
  1 14  1  0  0  0  0
  2  3  1  0  0  0  0
  2  7  1  0  0  0  0
  2 15  1  1  0  0  0
  3  4  1  0  0  0  0
  3 16  1  0  0  0  0
  3 17  1  0  0  0  0
  4  5  1  0  0  0  0
  4 18  1  0  0  0  0
  4 19  1  0  0  0  0
  5  6  1  0  0  0  0
  5  9  1  0  0  0  0
  5 20  1  6  0  0  0
  6  7  1  0  0  0  0
  6 21  1  0  0  0  0
  6 22  1  0  0  0  0
  7  8  1  0  0  0  0
  7 23  1  1  0  0  0
  8 24  1  0  0  0  0
  9 10  2  0  0  0  0
  9 11  1  0  0  0  0
 10 25  1  0  0  0  0
 10 26  1  0  0  0  0
 11 27  1  0  0  0  0
 11 28  1  0  0  0  0
 11 29  1  0  0  0  0
M  END
$$$$
