
 OpenBabel07202215583D

 24 24  0  0  0  0  0  0  0  0999 V2000
    1.0413    0.0290    0.1053 C   0  0  0  0  0  0  0  0  0  0  0  0
    2.5329   -0.1222    0.0677 C   0  0  0  0  0  0  0  0  0  0  0  0
    3.0962   -1.1759   -0.2166 O   0  0  0  0  0  0  0  0  0  0  0  0
    3.1543    1.0718    0.4210 O   0  0  0  0  0  0  0  0  0  0  0  0
    4.5679    1.1174    0.4554 C   0  0  0  0  0  0  0  0  0  0  0  0
    5.2470    1.7228    1.5264 C   0  0  0  0  0  0  0  0  0  0  0  0
    6.6450    1.8898    1.4333 C   0  0  0  0  0  0  0  0  0  0  0  0
    7.3529    1.3537    0.3483 C   0  0  0  0  0  0  0  0  0  0  0  0
    6.6664    0.7389   -0.6971 C   0  0  0  0  0  0  0  0  0  0  0  0
    5.2780    0.6480   -0.6555 C   0  0  0  0  0  0  0  0  0  0  0  0
    8.8331    1.3700    0.3204 C   0  0  0  0  0  0  0  0  0  0  0  0
    9.4694    0.8487   -0.5891 O   0  0  0  0  0  0  0  0  0  0  0  0
    4.7104    2.1625    2.7112 O   0  0  0  0  0  0  0  0  0  0  0  0
    3.3485    1.8375    2.9750 C   0  0  0  0  0  0  0  0  0  0  0  0
    0.5945   -0.9191   -0.2124 H   0  0  0  0  0  0  0  0  0  0  0  0
    0.7083    0.8072   -0.5858 H   0  0  0  0  0  0  0  0  0  0  0  0
    0.7025    0.2400    1.1227 H   0  0  0  0  0  0  0  0  0  0  0  0
    7.1755    2.4234    2.2200 H   0  0  0  0  0  0  0  0  0  0  0  0
    7.2047    0.3256   -1.5474 H   0  0  0  0  0  0  0  0  0  0  0  0
    4.7606    0.1761   -1.4851 H   0  0  0  0  0  0  0  0  0  0  0  0
    9.3488    1.8483    1.1686 H   0  0  0  0  0  0  0  0  0  0  0  0
    3.1076    2.1205    4.0039 H   0  0  0  0  0  0  0  0  0  0  0  0
    3.1576    0.7608    2.8876 H   0  0  0  0  0  0  0  0  0  0  0  0
    2.6923    2.4208    2.3224 H   0  0  0  0  0  0  0  0  0  0  0  0
  1  2  1  0  0  0  0
  1 15  1  0  0  0  0
  1 16  1  0  0  0  0
  1 17  1  0  0  0  0
  2  3  2  0  0  0  0
  2  4  1  0  0  0  0
  4  5  1  0  0  0  0
  5  6  2  0  0  0  0
  5 10  1  0  0  0  0
  6  7  1  0  0  0  0
  6 13  1  0  0  0  0
  7  8  2  0  0  0  0
  7 18  1  0  0  0  0
  8  9  1  0  0  0  0
  8 11  1  0  0  0  0
  9 10  2  0  0  0  0
  9 19  1  0  0  0  0
 10 20  1  0  0  0  0
 11 12  2  0  0  0  0
 11 21  1  0  0  0  0
 13 14  1  0  0  0  0
 14 22  1  0  0  0  0
 14 23  1  0  0  0  0
 14 24  1  0  0  0  0
M  END
$$$$
