
 OpenBabel07202215583D

 26 26  0  0  0  0  0  0  0  0999 V2000
    1.0514   -0.0209   -0.0471 C   0  0  0  0  0  0  0  0  0  0  0  0
    2.5684   -0.0130   -0.0570 C   0  0  0  0  0  0  0  0  0  0  0  0
    3.0961    0.9411   -1.1234 C   0  0  0  0  0  0  0  0  0  0  0  0
    4.6190    0.9512   -1.1260 C   0  0  0  0  0  0  0  0  0  0  0  0
    5.1585    1.9123   -2.1843 C   0  0  0  0  0  0  0  0  0  0  0  0
    6.6648    1.9096   -2.2152 C   0  0  0  0  0  0  0  0  0  0  0  0
    7.3371    1.9224   -3.4333 C   0  0  0  0  0  0  0  0  0  0  0  0
    8.7284    1.9044   -3.4279 C   0  0  0  0  0  0  0  0  0  0  0  0
    9.4064    1.8870   -2.2161 C   0  0  0  0  0  0  0  0  0  0  0  0
    8.6629    1.9014   -1.0499 C   0  0  0  0  0  0  0  0  0  0  0  0
    7.3142    1.9221   -1.0262 N   0  0  0  0  0  0  0  0  0  0  0  0
    0.6802   -0.7068    0.7194 H   0  0  0  0  0  0  0  0  0  0  0  0
    0.6592   -0.3431   -1.0169 H   0  0  0  0  0  0  0  0  0  0  0  0
    0.6601    0.9788    0.1669 H   0  0  0  0  0  0  0  0  0  0  0  0
    2.9388   -1.0274   -0.2468 H   0  0  0  0  0  0  0  0  0  0  0  0
    2.9385    0.2880    0.9302 H   0  0  0  0  0  0  0  0  0  0  0  0
    2.7220    1.9544   -0.9326 H   0  0  0  0  0  0  0  0  0  0  0  0
    2.7256    0.6383   -2.1102 H   0  0  0  0  0  0  0  0  0  0  0  0
    4.9970   -0.0615   -1.3174 H   0  0  0  0  0  0  0  0  0  0  0  0
    4.9781    1.2412   -0.1305 H   0  0  0  0  0  0  0  0  0  0  0  0
    4.8114    2.9340   -1.9905 H   0  0  0  0  0  0  0  0  0  0  0  0
    4.7657    1.6152   -3.1649 H   0  0  0  0  0  0  0  0  0  0  0  0
    6.7920    1.9350   -4.3705 H   0  0  0  0  0  0  0  0  0  0  0  0
    9.2763    1.9001   -4.3654 H   0  0  0  0  0  0  0  0  0  0  0  0
   10.4893    1.8656   -2.1788 H   0  0  0  0  0  0  0  0  0  0  0  0
    9.1409    1.8936   -0.0757 H   0  0  0  0  0  0  0  0  0  0  0  0
  1  2  1  0  0  0  0
  1 12  1  0  0  0  0
  1 13  1  0  0  0  0
  1 14  1  0  0  0  0
  2  3  1  0  0  0  0
  2 15  1  0  0  0  0
  2 16  1  0  0  0  0
  3  4  1  0  0  0  0
  3 17  1  0  0  0  0
  3 18  1  0  0  0  0
  4  5  1  0  0  0  0
  4 19  1  0  0  0  0
  4 20  1  0  0  0  0
  5  6  1  0  0  0  0
  5 21  1  0  0  0  0
  5 22  1  0  0  0  0
  6  7  1  0  0  0  0
  6 11  2  0  0  0  0
  7  8  2  0  0  0  0
  7 23  1  0  0  0  0
  8  9  1  0  0  0  0
  8 24  1  0  0  0  0
  9 10  2  0  0  0  0
  9 25  1  0  0  0  0
 10 11  1  0  0  0  0
 10 26  1  0  0  0  0
M  END
$$$$
