
 OpenBabel07222214433D

 35 34  0  0  0  0  0  0  0  0999 V2000
    0.9308    0.0862    0.0518 C   0  0  0  0  0  0  0  0  0  0  0  0
    2.4472    0.0786    0.0506 C   0  0  0  0  0  0  0  0  0  0  0  0
    2.9716   -1.3339   -0.1689 C   0  0  0  0  0  0  0  0  0  0  0  0
    4.4930   -1.3463   -0.1708 C   0  0  0  0  0  0  0  0  0  0  0  0
    5.0075   -2.7616   -0.3907 C   0  0  0  0  0  0  0  0  0  0  0  0
    6.5285   -2.7794   -0.3934 C   0  0  0  0  0  0  0  0  0  0  0  0
    7.0451   -4.1977   -0.6138 C   0  0  0  0  0  0  0  0  0  0  0  0
    8.5672   -4.2077   -0.6153 C   0  0  0  0  0  0  0  0  0  0  0  0
    9.1414   -5.6074   -0.8328 C   0  0  0  0  0  0  0  0  0  0  0  0
   10.6541   -5.5489   -0.8237 C   0  0  0  0  0  0  0  0  0  0  0  0
   11.3105   -4.5259   -0.6648 O   0  0  0  0  0  0  0  0  0  0  0  0
   11.1934   -6.7851   -1.0158 O   0  0  0  0  0  0  0  0  0  0  0  0
   12.6260   -6.7846   -1.0157 C   0  0  0  0  0  0  0  0  0  0  0  0
    0.5568    1.1011    0.2095 H   0  0  0  0  0  0  0  0  0  0  0  0
    0.5416   -0.5538    0.8501 H   0  0  0  0  0  0  0  0  0  0  0  0
    0.5416   -0.2814   -0.9031 H   0  0  0  0  0  0  0  0  0  0  0  0
    2.8178    0.4704    1.0051 H   0  0  0  0  0  0  0  0  0  0  0  0
    2.8178    0.7415   -0.7400 H   0  0  0  0  0  0  0  0  0  0  0  0
    2.5980   -1.7260   -1.1229 H   0  0  0  0  0  0  0  0  0  0  0  0
    2.5980   -1.9970    0.6213 H   0  0  0  0  0  0  0  0  0  0  0  0
    4.8697   -0.9576    0.7833 H   0  0  0  0  0  0  0  0  0  0  0  0
    4.8697   -0.6865   -0.9619 H   0  0  0  0  0  0  0  0  0  0  0  0
    4.6300   -3.1497   -1.3446 H   0  0  0  0  0  0  0  0  0  0  0  0
    4.6300   -3.4208    0.4006 H   0  0  0  0  0  0  0  0  0  0  0  0
    6.9039   -2.3879    0.5604 H   0  0  0  0  0  0  0  0  0  0  0  0
    6.9039   -2.1170   -1.1835 H   0  0  0  0  0  0  0  0  0  0  0  0
    6.6667   -4.5830   -1.5680 H   0  0  0  0  0  0  0  0  0  0  0  0
    6.6667   -4.8543    0.1786 H   0  0  0  0  0  0  0  0  0  0  0  0
    8.9332   -3.8052    0.3379 H   0  0  0  0  0  0  0  0  0  0  0  0
    8.9332   -3.5349   -1.4015 H   0  0  0  0  0  0  0  0  0  0  0  0
    8.8010   -6.0013   -1.7970 H   0  0  0  0  0  0  0  0  0  0  0  0
    8.8010   -6.2753   -0.0335 H   0  0  0  0  0  0  0  0  0  0  0  0
   12.9743   -7.8089   -1.1748 H   0  0  0  0  0  0  0  0  0  0  0  0
   13.0120   -6.4370   -0.0513 H   0  0  0  0  0  0  0  0  0  0  0  0
   13.0120   -6.1607   -1.8292 H   0  0  0  0  0  0  0  0  0  0  0  0
  1  2  1  0  0  0  0
  1 14  1  0  0  0  0
  1 15  1  0  0  0  0
  1 16  1  0  0  0  0
  2  3  1  0  0  0  0
  2 17  1  0  0  0  0
  2 18  1  0  0  0  0
  3  4  1  0  0  0  0
  3 19  1  0  0  0  0
  3 20  1  0  0  0  0
  4  5  1  0  0  0  0
  4 21  1  0  0  0  0
  4 22  1  0  0  0  0
  5  6  1  0  0  0  0
  5 23  1  0  0  0  0
  5 24  1  0  0  0  0
  6  7  1  0  0  0  0
  6 25  1  0  0  0  0
  6 26  1  0  0  0  0
  7  8  1  0  0  0  0
  7 27  1  0  0  0  0
  7 28  1  0  0  0  0
  8  9  1  0  0  0  0
  8 29  1  0  0  0  0
  8 30  1  0  0  0  0
  9 10  1  0  0  0  0
  9 31  1  0  0  0  0
  9 32  1  0  0  0  0
 10 11  2  0  0  0  0
 10 12  1  0  0  0  0
 12 13  1  0  0  0  0
 13 33  1  0  0  0  0
 13 34  1  0  0  0  0
 13 35  1  0  0  0  0
M  END
$$$$
