
 OpenBabel07222214433D

 32 32  0  0  0  0  0  0  0  0999 V2000
    1.0274   -0.0930   -0.0124 C   0  0  0  0  0  0  0  0  0  0  0  0
    2.5685   -0.0938   -0.0304 C   0  0  0  0  0  0  0  0  0  0  0  0
    3.0721   -0.9743   -1.1863 C   0  0  0  0  0  0  0  0  0  0  0  0
    3.0543    1.3498   -0.2918 C   0  0  0  0  0  0  0  0  0  0  0  0
    3.0259   -0.6266    1.3267 C   0  0  0  0  0  0  0  0  0  0  0  0
    3.0030   -2.0004    1.6265 C   0  0  0  0  0  0  0  0  0  0  0  0
    3.2171   -2.4576    2.9270 C   0  0  0  0  0  0  0  0  0  0  0  0
    3.5473   -1.5570    3.9411 C   0  0  0  0  0  0  0  0  0  0  0  0
    3.8980   -2.0728    5.3123 C   0  0  0  0  0  0  0  0  0  0  0  0
    4.3124   -0.9578    6.2666 C   0  0  0  0  0  0  0  0  0  0  0  0
    4.7029   -1.4693    7.6111 C   0  0  0  0  0  0  0  0  0  0  0  0
    5.0585   -0.7114    8.5172 O   0  0  0  0  0  0  0  0  0  0  0  0
    3.5945   -0.1944    3.6368 C   0  0  0  0  0  0  0  0  0  0  0  0
    3.3467    0.2610    2.3558 C   0  0  0  0  0  0  0  0  0  0  0  0
    0.6210    0.2874   -0.9545 H   0  0  0  0  0  0  0  0  0  0  0  0
    0.6395    0.5372    0.7984 H   0  0  0  0  0  0  0  0  0  0  0  0
    0.6250   -1.1012    0.1437 H   0  0  0  0  0  0  0  0  0  0  0  0
    2.7386   -0.5809   -2.1520 H   0  0  0  0  0  0  0  0  0  0  0  0
    2.6964   -2.0005   -1.1227 H   0  0  0  0  0  0  0  0  0  0  0  0
    4.1672   -1.0207   -1.1938 H   0  0  0  0  0  0  0  0  0  0  0  0
    2.7241    1.7136   -1.2689 H   0  0  0  0  0  0  0  0  0  0  0  0
    4.1490    1.4082   -0.2546 H   0  0  0  0  0  0  0  0  0  0  0  0
    2.6555    2.0587    0.4439 H   0  0  0  0  0  0  0  0  0  0  0  0
    2.7949   -2.7417    0.8600 H   0  0  0  0  0  0  0  0  0  0  0  0
    3.1169   -3.5204    3.1359 H   0  0  0  0  0  0  0  0  0  0  0  0
    4.7297   -2.7809    5.2017 H   0  0  0  0  0  0  0  0  0  0  0  0
    3.0460   -2.6289    5.7222 H   0  0  0  0  0  0  0  0  0  0  0  0
    3.4821   -0.2557    6.4087 H   0  0  0  0  0  0  0  0  0  0  0  0
    5.1772   -0.4176    5.8603 H   0  0  0  0  0  0  0  0  0  0  0  0
    4.6666   -2.5566    7.7638 H   0  0  0  0  0  0  0  0  0  0  0  0
    3.8161    0.5653    4.3799 H   0  0  0  0  0  0  0  0  0  0  0  0
    3.3987    1.3342    2.2083 H   0  0  0  0  0  0  0  0  0  0  0  0
  1  2  1  0  0  0  0
  1 15  1  0  0  0  0
  1 16  1  0  0  0  0
  1 17  1  0  0  0  0
  2  3  1  0  0  0  0
  2  4  1  0  0  0  0
  2  5  1  0  0  0  0
  3 18  1  0  0  0  0
  3 19  1  0  0  0  0
  3 20  1  0  0  0  0
  4 21  1  0  0  0  0
  4 22  1  0  0  0  0
  4 23  1  0  0  0  0
  5  6  1  0  0  0  0
  5 14  2  0  0  0  0
  6  7  2  0  0  0  0
  6 24  1  0  0  0  0
  7  8  1  0  0  0  0
  7 25  1  0  0  0  0
  8  9  1  0  0  0  0
  8 13  2  0  0  0  0
  9 10  1  0  0  0  0
  9 26  1  0  0  0  0
  9 27  1  0  0  0  0
 10 11  1  0  0  0  0
 10 28  1  0  0  0  0
 10 29  1  0  0  0  0
 11 12  2  0  0  0  0
 11 30  1  0  0  0  0
 13 14  1  0  0  0  0
 13 31  1  0  0  0  0
 14 32  1  0  0  0  0
M  END
$$$$
