
 OpenBabel07202215583D

 18 17  0  0  0  0  0  0  0  0999 V2000
    0.9034    0.0063   -0.0817 C   0  0  0  0  0  0  0  0  0  0  0  0
    2.4230    0.0021   -0.0690 C   0  0  0  0  0  0  0  0  0  0  0  0
    2.9558   -0.4524    1.2874 C   0  0  0  0  0  0  0  0  0  0  0  0
    4.4807   -0.4618    1.3126 C   0  0  0  0  0  0  0  0  0  0  0  0
    5.0026   -0.9180    2.6679 C   0  0  0  0  0  0  0  0  0  0  0  0
    6.4232   -0.9088    2.6662 O   0  0  0  0  0  0  0  0  0  0  0  0
    0.5315    0.3331   -1.0572 H   0  0  0  0  0  0  0  0  0  0  0  0
    0.5090    0.6865    0.6800 H   0  0  0  0  0  0  0  0  0  0  0  0
    0.5091   -0.9956    0.1163 H   0  0  0  0  0  0  0  0  0  0  0  0
    2.7906    1.0094   -0.2968 H   0  0  0  0  0  0  0  0  0  0  0  0
    2.7905   -0.6646   -0.8578 H   0  0  0  0  0  0  0  0  0  0  0  0
    2.5790   -1.4579    1.5116 H   0  0  0  0  0  0  0  0  0  0  0  0
    2.5796    0.2151    2.0723 H   0  0  0  0  0  0  0  0  0  0  0  0
    4.8731    0.5377    1.0873 H   0  0  0  0  0  0  0  0  0  0  0  0
    4.8700   -1.1218    0.5274 H   0  0  0  0  0  0  0  0  0  0  0  0
    4.6612   -1.9311    2.9040 H   0  0  0  0  0  0  0  0  0  0  0  0
    4.6597   -0.2472    3.4616 H   0  0  0  0  0  0  0  0  0  0  0  0
    6.7179   -1.5167    1.9681 H   0  0  0  0  0  0  0  0  0  0  0  0
  1  2  1  0  0  0  0
  1  7  1  0  0  0  0
  1  8  1  0  0  0  0
  1  9  1  0  0  0  0
  2  3  1  0  0  0  0
  2 10  1  0  0  0  0
  2 11  1  0  0  0  0
  3  4  1  0  0  0  0
  3 12  1  0  0  0  0
  3 13  1  0  0  0  0
  4  5  1  0  0  0  0
  4 14  1  0  0  0  0
  4 15  1  0  0  0  0
  5  6  1  0  0  0  0
  5 16  1  0  0  0  0
  5 17  1  0  0  0  0
  6 18  1  0  0  0  0
M  END
$$$$
