
 OpenBabel07202215583D

 25 25  0  0  1  0  0  0  0  0999 V2000
    4.3143    3.4751   -0.6675 C   0  0  0  0  0  0  0  0  0  0  0  0
    3.2199    2.4788   -0.4047 C   0  0  0  0  0  0  0  0  0  0  0  0
    2.0569    2.8626    0.1516 C   0  0  0  0  0  0  0  0  0  0  0  0
    3.3505    1.0549   -0.9240 C   0  0  1  0  0  0  0  0  0  0  0  0
    2.8287    1.0564   -2.3662 C   0  0  0  0  0  0  0  0  0  0  0  0
    2.7367   -0.3492   -2.9416 C   0  0  0  0  0  0  0  0  0  0  0  0
    3.9245   -1.1984   -2.6055 C   0  0  0  0  0  0  0  0  0  0  0  0
    4.8355   -0.8726   -1.6708 C   0  0  0  0  0  0  0  0  0  0  0  0
    4.7454    0.3934   -0.8484 C   0  0  0  0  0  0  0  0  0  0  0  0
    4.0816   -2.4529   -3.3841 C   0  0  0  0  0  0  0  0  0  0  0  0
    3.2859   -2.7881   -4.2572 O   0  0  0  0  0  0  0  0  0  0  0  0
    4.0366    4.4768   -0.3202 H   0  0  0  0  0  0  0  0  0  0  0  0
    4.5195    3.5524   -1.7405 H   0  0  0  0  0  0  0  0  0  0  0  0
    5.2359    3.1938   -0.1507 H   0  0  0  0  0  0  0  0  0  0  0  0
    1.8702    3.8896    0.4459 H   0  0  0  0  0  0  0  0  0  0  0  0
    1.2324    2.1623    0.2611 H   0  0  0  0  0  0  0  0  0  0  0  0
    2.6860    0.4155   -0.3211 H   0  0  0  0  0  0  0  0  0  0  0  0
    3.4889    1.6675   -2.9955 H   0  0  0  0  0  0  0  0  0  0  0  0
    1.8335    1.5165   -2.4151 H   0  0  0  0  0  0  0  0  0  0  0  0
    2.6192   -0.2586   -4.0274 H   0  0  0  0  0  0  0  0  0  0  0  0
    1.8344   -0.8384   -2.5544 H   0  0  0  0  0  0  0  0  0  0  0  0
    5.6872   -1.5193   -1.4723 H   0  0  0  0  0  0  0  0  0  0  0  0
    5.5313    1.0720   -1.1989 H   0  0  0  0  0  0  0  0  0  0  0  0
    4.9757    0.1526    0.1974 H   0  0  0  0  0  0  0  0  0  0  0  0
    4.9582   -3.0711   -3.1372 H   0  0  0  0  0  0  0  0  0  0  0  0
  1  2  1  0  0  0  0
  1 12  1  0  0  0  0
  1 13  1  0  0  0  0
  1 14  1  0  0  0  0
  2  3  2  0  0  0  0
  3 15  1  0  0  0  0
  3 16  1  0  0  0  0
  4  5  1  0  0  0  0
  4  9  1  0  0  0  0
  4  2  1  0  0  0  0
  4 17  1  1  0  0  0
  5  6  1  0  0  0  0
  5 18  1  0  0  0  0
  5 19  1  0  0  0  0
  6  7  1  0  0  0  0
  6 20  1  0  0  0  0
  6 21  1  0  0  0  0
  7  8  2  0  0  0  0
  7 10  1  0  0  0  0
  8  9  1  0  0  0  0
  8 22  1  0  0  0  0
  9 23  1  0  0  0  0
  9 24  1  0  0  0  0
 10 11  2  0  0  0  0
 10 25  1  0  0  0  0
M  END
$$$$
