
 OpenBabel07202215583D

 22 21  0  0  0  0  0  0  0  0999 V2000
    1.0410   -0.0519    0.0011 C   0  0  0  0  0  0  0  0  0  0  0  0
    2.5547   -0.0727   -0.0047 C   0  0  0  0  0  0  0  0  0  0  0  0
    3.0631   -1.4587   -0.3903 C   0  0  0  0  0  0  0  0  0  0  0  0
    4.5787   -1.4584   -0.3902 C   0  0  0  0  0  0  0  0  0  0  0  0
    5.1640   -2.8079   -0.7656 C   0  0  0  0  0  0  0  0  0  0  0  0
    6.6812   -2.8326   -0.7725 C   0  0  0  0  0  0  0  0  0  0  0  0
    7.4769   -1.5954   -0.4283 C   0  0  0  0  0  0  0  0  0  0  0  0
    7.2737   -3.8789   -1.0636 O   0  0  0  0  0  0  0  0  0  0  0  0
    0.6751    0.9403    0.2771 H   0  0  0  0  0  0  0  0  0  0  0  0
    0.6507   -0.7788    0.7201 H   0  0  0  0  0  0  0  0  0  0  0  0
    0.6507   -0.3031   -0.9900 H   0  0  0  0  0  0  0  0  0  0  0  0
    2.9317    0.2042    0.9877 H   0  0  0  0  0  0  0  0  0  0  0  0
    2.9317    0.6769   -0.7115 H   0  0  0  0  0  0  0  0  0  0  0  0
    2.6921   -1.7321   -1.3848 H   0  0  0  0  0  0  0  0  0  0  0  0
    2.6921   -2.2064    0.3201 H   0  0  0  0  0  0  0  0  0  0  0  0
    4.9293   -1.1739    0.6098 H   0  0  0  0  0  0  0  0  0  0  0  0
    4.9293   -0.6983   -1.0996 H   0  0  0  0  0  0  0  0  0  0  0  0
    4.8202   -3.0947   -1.7668 H   0  0  0  0  0  0  0  0  0  0  0  0
    4.8202   -3.5705   -0.0565 H   0  0  0  0  0  0  0  0  0  0  0  0
    6.8656   -0.7273   -0.1868 H   0  0  0  0  0  0  0  0  0  0  0  0
    8.0956   -1.3218   -1.2856 H   0  0  0  0  0  0  0  0  0  0  0  0
    8.0956   -1.8038    0.4471 H   0  0  0  0  0  0  0  0  0  0  0  0
  1  2  1  0  0  0  0
  1  9  1  0  0  0  0
  1 10  1  0  0  0  0
  1 11  1  0  0  0  0
  2  3  1  0  0  0  0
  2 12  1  0  0  0  0
  2 13  1  0  0  0  0
  3  4  1  0  0  0  0
  3 14  1  0  0  0  0
  3 15  1  0  0  0  0
  4  5  1  0  0  0  0
  4 16  1  0  0  0  0
  4 17  1  0  0  0  0
  5  6  1  0  0  0  0
  5 18  1  0  0  0  0
  5 19  1  0  0  0  0
  6  7  1  0  0  0  0
  6  8  2  0  0  0  0
  7 20  1  0  0  0  0
  7 21  1  0  0  0  0
  7 22  1  0  0  0  0
M  END
$$$$
