
 OpenBabel07122215493D

 20 20  0  0  0  0  0  0  0  0999 V2000
    0.9372   -0.0333    0.0721 C   0  0  0  0  0  0  0  0  0  0  0  0
    2.3597   -0.0237    0.0857 O   0  0  0  0  0  0  0  0  0  0  0  0
    2.9734    1.2038    0.0828 C   0  0  0  0  0  0  0  0  0  0  0  0
    4.3781    1.1161    0.0672 C   0  0  0  0  0  0  0  0  0  0  0  0
    5.1728    2.2676    0.0452 C   0  0  0  0  0  0  0  0  0  0  0  0
    4.5332    3.5190    0.0419 C   0  0  0  0  0  0  0  0  0  0  0  0
    3.1375    3.6182    0.0701 C   0  0  0  0  0  0  0  0  0  0  0  0
    2.3593    2.4634    0.0930 C   0  0  0  0  0  0  0  0  0  0  0  0
    0.9987    2.5886    0.1274 O   0  0  0  0  0  0  0  0  0  0  0  0
    6.6688    2.2564    0.0235 C   0  0  0  0  0  0  0  0  0  0  0  0
    7.2802    1.0556    0.0297 O   0  0  0  0  0  0  0  0  0  0  0  0
    7.3164    3.2957    0.0017 O   0  0  0  0  0  0  0  0  0  0  0  0
    0.6013   -1.0730    0.0612 H   0  0  0  0  0  0  0  0  0  0  0  0
    0.5488    0.4401   -0.8366 H   0  0  0  0  0  0  0  0  0  0  0  0
    0.5357    0.4232    0.9831 H   0  0  0  0  0  0  0  0  0  0  0  0
    4.8066    0.1208    0.0722 H   0  0  0  0  0  0  0  0  0  0  0  0
    5.1241    4.4346    0.0190 H   0  0  0  0  0  0  0  0  0  0  0  0
    2.6769    4.6022    0.0725 H   0  0  0  0  0  0  0  0  0  0  0  0
    0.7347    3.5216    0.1525 H   0  0  0  0  0  0  0  0  0  0  0  0
    6.7339    0.2536    0.0471 H   0  0  0  0  0  0  0  0  0  0  0  0
  1  2  1  0  0  0  0
  1 13  1  0  0  0  0
  1 14  1  0  0  0  0
  1 15  1  0  0  0  0
  2  3  1  0  0  0  0
  3  4  1  0  0  0  0
  3  8  2  0  0  0  0
  4  5  2  0  0  0  0
  4 16  1  0  0  0  0
  5  6  1  0  0  0  0
  5 10  1  0  0  0  0
  6  7  2  0  0  0  0
  6 17  1  0  0  0  0
  7  8  1  0  0  0  0
  7 18  1  0  0  0  0
  8  9  1  0  0  0  0
  9 19  1  0  0  0  0
 10 11  1  0  0  0  0
 10 12  2  0  0  0  0
 11 20  1  0  0  0  0
M  END
$$$$
