
 OpenBabel07202215583D

 14 14  0  0  0  0  0  0  0  0999 V2000
    0.9271    0.0234    0.0423 O   0  0  0  0  0  0  0  0  0  0  0  0
    2.1506    0.0868   -0.0368 C   0  0  0  0  0  0  0  0  0  0  0  0
    2.9008    1.2449    0.4745 C   0  0  0  0  0  0  0  0  0  0  0  0
    4.0801    1.6556   -0.1530 C   0  0  0  0  0  0  0  0  0  0  0  0
    4.8510    2.6615    0.4342 C   0  0  0  0  0  0  0  0  0  0  0  0
    4.4145    3.2847    1.6057 C   0  0  0  0  0  0  0  0  0  0  0  0
    3.2202    2.8886    2.2094 C   0  0  0  0  0  0  0  0  0  0  0  0
    2.4602    1.8671    1.6438 C   0  0  0  0  0  0  0  0  0  0  0  0
    2.7488   -0.7355   -0.4602 H   0  0  0  0  0  0  0  0  0  0  0  0
    4.3991    1.2157   -1.0944 H   0  0  0  0  0  0  0  0  0  0  0  0
    5.7986    2.9561   -0.0110 H   0  0  0  0  0  0  0  0  0  0  0  0
    5.0050    4.0830    2.0495 H   0  0  0  0  0  0  0  0  0  0  0  0
    2.8901    3.3607    3.1310 H   0  0  0  0  0  0  0  0  0  0  0  0
    1.5423    1.5367    2.1245 H   0  0  0  0  0  0  0  0  0  0  0  0
  1  2  2  0  0  0  0
  2  3  1  0  0  0  0
  2  9  1  0  0  0  0
  3  4  1  0  0  0  0
  3  8  2  0  0  0  0
  4  5  2  0  0  0  0
  4 10  1  0  0  0  0
  5  6  1  0  0  0  0
  5 11  1  0  0  0  0
  6  7  2  0  0  0  0
  6 12  1  0  0  0  0
  7  8  1  0  0  0  0
  7 13  1  0  0  0  0
  8 14  1  0  0  0  0
M  END
$$$$
