
 OpenBabel07122215493D

 23 24  0  0  0  0  0  0  0  0999 V2000
    0.9335   -0.0043    0.0855 O   0  0  0  0  0  0  0  0  0  0  0  0
    0.2116    1.1677    0.0355 C   0  0  0  0  0  0  0  0  0  0  0  0
   -0.7070    1.4249    1.0561 C   0  0  0  0  0  0  0  0  0  0  0  0
   -1.4943    2.5786    1.0024 C   0  0  0  0  0  0  0  0  0  0  0  0
   -1.3266    3.4945   -0.0366 C   0  0  0  0  0  0  0  0  0  0  0  0
   -0.4034    3.2391   -1.0508 C   0  0  0  0  0  0  0  0  0  0  0  0
    0.3329    2.0557   -1.0357 C   0  0  0  0  0  0  0  0  0  0  0  0
    2.3141    0.0663    0.1074 C   0  0  0  0  0  0  0  0  0  0  0  0
    2.9937   -1.1593    0.1187 C   0  0  0  0  0  0  0  0  0  0  0  0
    4.3863   -1.1857    0.2531 C   0  0  0  0  0  0  0  0  0  0  0  0
    5.1097    0.0032    0.3073 C   0  0  0  0  0  0  0  0  0  0  0  0
    4.4425    1.2240    0.2510 C   0  0  0  0  0  0  0  0  0  0  0  0
    3.0520    1.2492    0.1774 C   0  0  0  0  0  0  0  0  0  0  0  0
   -0.8075    0.7385    1.8914 H   0  0  0  0  0  0  0  0  0  0  0  0
   -2.2407    2.7652    1.7715 H   0  0  0  0  0  0  0  0  0  0  0  0
   -1.9183    4.4062   -0.0618 H   0  0  0  0  0  0  0  0  0  0  0  0
   -0.2609    3.9549   -1.8547 H   0  0  0  0  0  0  0  0  0  0  0  0
    1.0359    1.8480   -1.8385 H   0  0  0  0  0  0  0  0  0  0  0  0
    2.4446   -2.0935    0.0454 H   0  0  0  0  0  0  0  0  0  0  0  0
    4.9085   -2.1375    0.3300 H   0  0  0  0  0  0  0  0  0  0  0  0
    6.1916   -0.0125    0.4031 H   0  0  0  0  0  0  0  0  0  0  0  0
    4.9920    2.1585    0.2897 H   0  0  0  0  0  0  0  0  0  0  0  0
    2.5703    2.2221    0.1867 H   0  0  0  0  0  0  0  0  0  0  0  0
  1  2  1  0  0  0  0
  1  8  1  0  0  0  0
  2  3  1  0  0  0  0
  2  7  2  0  0  0  0
  3  4  2  0  0  0  0
  3 14  1  0  0  0  0
  4  5  1  0  0  0  0
  4 15  1  0  0  0  0
  5  6  2  0  0  0  0
  5 16  1  0  0  0  0
  6  7  1  0  0  0  0
  6 17  1  0  0  0  0
  7 18  1  0  0  0  0
  8  9  1  0  0  0  0
  8 13  2  0  0  0  0
  9 10  2  0  0  0  0
  9 19  1  0  0  0  0
 10 11  1  0  0  0  0
 10 20  1  0  0  0  0
 11 12  2  0  0  0  0
 11 21  1  0  0  0  0
 12 13  1  0  0  0  0
 12 22  1  0  0  0  0
 13 23  1  0  0  0  0
M  END
$$$$
