
 OpenBabel07222214433D

 19 19  0  0  0  0  0  0  0  0999 V2000
    1.0747   -0.0130    0.1029 C   0  0  0  0  0  0  0  0  0  0  0  0
    2.5064   -0.0135    0.0833 O   0  0  0  0  0  0  0  0  0  0  0  0
    3.0747   -1.1619    0.5303 C   0  0  0  0  0  0  0  0  0  0  0  0
    2.4742   -2.1786    0.8556 O   0  0  0  0  0  0  0  0  0  0  0  0
    4.5569   -1.0883    0.5054 C   0  0  0  0  0  0  0  0  0  0  0  0
    5.2685   -2.2003    0.0243 C   0  0  0  0  0  0  0  0  0  0  0  0
    6.6672   -2.2122    0.0449 C   0  0  0  0  0  0  0  0  0  0  0  0
    7.3639   -1.1226    0.5650 C   0  0  0  0  0  0  0  0  0  0  0  0
    6.6650   -0.0161    1.0567 C   0  0  0  0  0  0  0  0  0  0  0  0
    5.2650    0.0014    1.0241 C   0  0  0  0  0  0  0  0  0  0  0  0
    4.5889    1.0690    1.5447 O   0  0  0  0  0  0  0  0  0  0  0  0
    0.7247    0.9602   -0.2560 H   0  0  0  0  0  0  0  0  0  0  0  0
    0.6986   -0.1539    1.1219 H   0  0  0  0  0  0  0  0  0  0  0  0
    0.6777   -0.7851   -0.5639 H   0  0  0  0  0  0  0  0  0  0  0  0
    4.7337   -3.0666   -0.3600 H   0  0  0  0  0  0  0  0  0  0  0  0
    7.2124   -3.0756   -0.3316 H   0  0  0  0  0  0  0  0  0  0  0  0
    8.4519   -1.1421    0.5972 H   0  0  0  0  0  0  0  0  0  0  0  0
    7.2296    0.8110    1.4779 H   0  0  0  0  0  0  0  0  0  0  0  0
    5.2144    1.7622    1.8076 H   0  0  0  0  0  0  0  0  0  0  0  0
  1  2  1  0  0  0  0
  1 12  1  0  0  0  0
  1 13  1  0  0  0  0
  1 14  1  0  0  0  0
  2  3  1  0  0  0  0
  3  4  2  0  0  0  0
  3  5  1  0  0  0  0
  5  6  1  0  0  0  0
  5 10  2  0  0  0  0
  6  7  2  0  0  0  0
  6 15  1  0  0  0  0
  7  8  1  0  0  0  0
  7 16  1  0  0  0  0
  8  9  2  0  0  0  0
  8 17  1  0  0  0  0
  9 10  1  0  0  0  0
  9 18  1  0  0  0  0
 10 11  1  0  0  0  0
 11 19  1  0  0  0  0
M  END
$$$$
