
 OpenBabel07222214433D

 29 28  0  0  0  0  0  0  0  0999 V2000
    1.0501   -0.0494   -0.0342 C   0  0  0  0  0  0  0  0  0  0  0  0
    2.5661   -0.0535   -0.0330 C   0  0  0  0  0  0  0  0  0  0  0  0
    3.0965   -1.4242    0.3601 C   0  0  0  0  0  0  0  0  0  0  0  0
    4.6197   -1.4240    0.3600 C   0  0  0  0  0  0  0  0  0  0  0  0
    5.1346   -2.7972    0.7538 C   0  0  0  0  0  0  0  0  0  0  0  0
    6.6323   -2.8520    0.7695 C   0  0  0  0  0  0  0  0  0  0  0  0
    7.3012   -3.9691    1.0898 C   0  0  0  0  0  0  0  0  0  0  0  0
    6.6004   -5.2463    1.4561 C   0  0  0  0  0  0  0  0  0  0  0  0
    7.5793   -6.3612    1.7758 C   0  0  0  0  0  0  0  0  0  0  0  0
    6.8413   -7.6200    2.1368 C   0  0  0  0  0  0  0  0  0  0  0  0
    7.4194   -8.6628    2.4359 O   0  0  0  0  0  0  0  0  0  0  0  0
    0.6751    0.9375   -0.3172 H   0  0  0  0  0  0  0  0  0  0  0  0
    0.6615   -0.2953    0.9592 H   0  0  0  0  0  0  0  0  0  0  0  0
    0.6615   -0.7844   -0.7463 H   0  0  0  0  0  0  0  0  0  0  0  0
    2.9358    0.7031    0.6687 H   0  0  0  0  0  0  0  0  0  0  0  0
    2.9358    0.2162   -1.0291 H   0  0  0  0  0  0  0  0  0  0  0  0
    2.7251   -2.1836   -0.3398 H   0  0  0  0  0  0  0  0  0  0  0  0
    2.7251   -1.6973    1.3560 H   0  0  0  0  0  0  0  0  0  0  0  0
    4.9926   -0.6694    1.0634 H   0  0  0  0  0  0  0  0  0  0  0  0
    4.9926   -1.1569   -0.6364 H   0  0  0  0  0  0  0  0  0  0  0  0
    4.7504   -3.5405    0.0439 H   0  0  0  0  0  0  0  0  0  0  0  0
    4.7504   -3.0513    1.7497 H   0  0  0  0  0  0  0  0  0  0  0  0
    7.1893   -1.9532    0.5118 H   0  0  0  0  0  0  0  0  0  0  0  0
    8.3891   -3.9481    1.0838 H   0  0  0  0  0  0  0  0  0  0  0  0
    5.9530   -5.5587    0.6261 H   0  0  0  0  0  0  0  0  0  0  0  0
    5.9530   -5.0714    2.3255 H   0  0  0  0  0  0  0  0  0  0  0  0
    8.2106   -6.0771    2.6239 H   0  0  0  0  0  0  0  0  0  0  0  0
    8.2106   -6.5697    0.9061 H   0  0  0  0  0  0  0  0  0  0  0  0
    5.7389   -7.5759    2.1242 H   0  0  0  0  0  0  0  0  0  0  0  0
  1  2  1  0  0  0  0
  1 12  1  0  0  0  0
  1 13  1  0  0  0  0
  1 14  1  0  0  0  0
  2  3  1  0  0  0  0
  2 15  1  0  0  0  0
  2 16  1  0  0  0  0
  3  4  1  0  0  0  0
  3 17  1  0  0  0  0
  3 18  1  0  0  0  0
  4  5  1  0  0  0  0
  4 19  1  0  0  0  0
  4 20  1  0  0  0  0
  5  6  1  0  0  0  0
  5 21  1  0  0  0  0
  5 22  1  0  0  0  0
  6  7  2  0  0  0  0
  6 23  1  0  0  0  0
  7  8  1  0  0  0  0
  7 24  1  0  0  0  0
  8  9  1  0  0  0  0
  8 25  1  0  0  0  0
  8 26  1  0  0  0  0
  9 10  1  0  0  0  0
  9 27  1  0  0  0  0
  9 28  1  0  0  0  0
 10 11  2  0  0  0  0
 10 29  1  0  0  0  0
M  END
$$$$
