
 OpenBabel07222214433D

 24 23  0  0  0  0  0  0  0  0999 V2000
    0.8836   -0.0754   -0.0026 C   0  0  0  0  0  0  0  0  0  0  0  0
    2.4007   -0.0284   -0.0192 C   0  0  0  0  0  0  0  0  0  0  0  0
    2.8840    0.6254   -1.3255 C   0  0  0  0  0  0  0  0  0  0  0  0
    2.9432    0.7025    1.2322 C   0  0  0  0  0  0  0  0  0  0  0  0
    4.4421    0.5408    1.2496 C   0  0  0  0  0  0  0  0  0  0  0  0
    4.9437   -0.3011    0.4983 O   0  0  0  0  0  0  0  0  0  0  0  0
    5.2710    1.2944    2.2429 C   0  0  0  0  0  0  0  0  0  0  0  0
    6.7801    1.2154    2.0863 C   0  0  0  0  0  0  0  0  0  0  0  0
    7.4703    0.5227    0.9270 C   0  0  0  0  0  0  0  0  0  0  0  0
    7.4884    1.7533    2.9489 O   0  0  0  0  0  0  0  0  0  0  0  0
    0.5138   -0.6297   -0.8716 H   0  0  0  0  0  0  0  0  0  0  0  0
    0.4687    0.9355   -0.0332 H   0  0  0  0  0  0  0  0  0  0  0  0
    0.5214   -0.5779    0.8991 H   0  0  0  0  0  0  0  0  0  0  0  0
    2.7577   -1.0694   -0.0051 H   0  0  0  0  0  0  0  0  0  0  0  0
    2.5437    1.6626   -1.3881 H   0  0  0  0  0  0  0  0  0  0  0  0
    2.5055    0.0756   -2.1929 H   0  0  0  0  0  0  0  0  0  0  0  0
    3.9745    0.6389   -1.4257 H   0  0  0  0  0  0  0  0  0  0  0  0
    2.5592    0.2316    2.1459 H   0  0  0  0  0  0  0  0  0  0  0  0
    2.6547    1.7586    1.2287 H   0  0  0  0  0  0  0  0  0  0  0  0
    5.0248    0.8851    3.2314 H   0  0  0  0  0  0  0  0  0  0  0  0
    4.9911    2.3554    2.2324 H   0  0  0  0  0  0  0  0  0  0  0  0
    6.8510    0.1156    0.1394 H   0  0  0  0  0  0  0  0  0  0  0  0
    8.0583   -0.3114    1.3187 H   0  0  0  0  0  0  0  0  0  0  0  0
    8.1049    1.2450    0.4115 H   0  0  0  0  0  0  0  0  0  0  0  0
  1  2  1  0  0  0  0
  1 11  1  0  0  0  0
  1 12  1  0  0  0  0
  1 13  1  0  0  0  0
  2  3  1  0  0  0  0
  2  4  1  0  0  0  0
  2 14  1  0  0  0  0
  3 15  1  0  0  0  0
  3 16  1  0  0  0  0
  3 17  1  0  0  0  0
  4  5  1  0  0  0  0
  4 18  1  0  0  0  0
  4 19  1  0  0  0  0
  5  6  2  0  0  0  0
  5  7  1  0  0  0  0
  7  8  1  0  0  0  0
  7 20  1  0  0  0  0
  7 21  1  0  0  0  0
  8  9  1  0  0  0  0
  8 10  2  0  0  0  0
  9 22  1  0  0  0  0
  9 23  1  0  0  0  0
  9 24  1  0  0  0  0
M  END
$$$$
