
 OpenBabel07222214443D

  9  8  0  0  0  0  0  0  0  0999 V2000
    0.9976    0.0380   -0.0907 C   0  0  0  0  0  0  0  0  0  0  0  0
    2.5121    0.0326   -0.0914 C   0  0  0  0  0  0  0  0  0  0  0  0
    2.9934   -1.0456   -0.8806 O   0  0  0  0  0  0  0  0  0  0  0  0
    0.6112    0.8700    0.5046 H   0  0  0  0  0  0  0  0  0  0  0  0
    0.6070   -0.8995    0.3186 H   0  0  0  0  0  0  0  0  0  0  0  0
    0.6122    0.1246   -1.1119 H   0  0  0  0  0  0  0  0  0  0  0  0
    2.9047   -0.0732    0.9244 H   0  0  0  0  0  0  0  0  0  0  0  0
    2.8979    0.9643   -0.5152 H   0  0  0  0  0  0  0  0  0  0  0  0
    2.6555   -1.8691   -0.4893 H   0  0  0  0  0  0  0  0  0  0  0  0
  1  2  1  0  0  0  0
  1  4  1  0  0  0  0
  1  5  1  0  0  0  0
  1  6  1  0  0  0  0
  2  3  1  0  0  0  0
  2  7  1  0  0  0  0
  2  8  1  0  0  0  0
  3  9  1  0  0  0  0
M  END
$$$$
