
 OpenBabel07122215493D

 29 29  0  0  1  0  0  0  0  0999 V2000
    0.8019    0.0799    0.1457 C   0  0  0  0  0  0  0  0  0  0  0  0
    2.3278    0.0827    0.1017 C   0  0  2  0  0  0  0  0  0  0  0  0
    2.8749    1.0829   -0.9371 C   0  0  0  0  0  0  0  0  0  0  0  0
    2.5753    0.6487   -2.3733 C   0  0  0  0  0  0  0  0  0  0  0  0
    3.1151   -0.7712   -2.6942 C   0  0  2  0  0  0  0  0  0  0  0  0
    2.5436   -1.7509   -1.6429 C   0  0  0  0  0  0  0  0  0  0  0  0
    2.8358   -1.3331   -0.1810 C   0  0  1  0  0  0  0  0  0  0  0  0
    4.2091   -1.3656    0.1996 O   0  0  0  0  0  0  0  0  0  0  0  0
    4.6428   -0.8522   -2.8217 C   0  0  0  0  0  0  0  0  0  0  0  0
    5.4122   -1.7782   -2.2304 C   0  0  0  0  0  0  0  0  0  0  0  0
    5.3331    0.1631   -3.6859 C   0  0  0  0  0  0  0  0  0  0  0  0
    0.4267    1.0590    0.4493 H   0  0  0  0  0  0  0  0  0  0  0  0
    0.4465   -0.6684    0.8619 H   0  0  0  0  0  0  0  0  0  0  0  0
    0.3553   -0.1632   -0.8223 H   0  0  0  0  0  0  0  0  0  0  0  0
    2.7001    0.3953    1.0862 H   0  0  0  0  0  0  0  0  0  0  0  0
    3.9611    1.1950   -0.8254 H   0  0  0  0  0  0  0  0  0  0  0  0
    2.4564    2.0780   -0.7489 H   0  0  0  0  0  0  0  0  0  0  0  0
    2.9627    1.3994   -3.0704 H   0  0  0  0  0  0  0  0  0  0  0  0
    1.4878    0.6619   -2.5273 H   0  0  0  0  0  0  0  0  0  0  0  0
    2.7043   -1.0524   -3.6758 H   0  0  0  0  0  0  0  0  0  0  0  0
    2.8868   -2.7717   -1.8434 H   0  0  0  0  0  0  0  0  0  0  0  0
    1.4545   -1.7965   -1.7811 H   0  0  0  0  0  0  0  0  0  0  0  0
    2.3554   -2.0615    0.4788 H   0  0  0  0  0  0  0  0  0  0  0  0
    4.6736   -0.6552   -0.2790 H   0  0  0  0  0  0  0  0  0  0  0  0
    5.0127   -2.5900   -1.6236 H   0  0  0  0  0  0  0  0  0  0  0  0
    6.4968   -1.7177   -2.2374 H   0  0  0  0  0  0  0  0  0  0  0  0
    4.6341    0.7176   -4.3148 H   0  0  0  0  0  0  0  0  0  0  0  0
    6.0315   -0.3440   -4.3606 H   0  0  0  0  0  0  0  0  0  0  0  0
    5.8884    0.8707   -3.0628 H   0  0  0  0  0  0  0  0  0  0  0  0
  1  2  1  0  0  0  0
  1 12  1  0  0  0  0
  1 13  1  0  0  0  0
  1 14  1  0  0  0  0
  2  3  1  0  0  0  0
  2  7  1  0  0  0  0
  2 15  1  1  0  0  0
  3  4  1  0  0  0  0
  3 16  1  0  0  0  0
  3 17  1  0  0  0  0
  4  5  1  0  0  0  0
  4 18  1  0  0  0  0
  4 19  1  0  0  0  0
  5  6  1  0  0  0  0
  5  9  1  0  0  0  0
  5 20  1  6  0  0  0
  6  7  1  0  0  0  0
  6 21  1  0  0  0  0
  6 22  1  0  0  0  0
  7  8  1  0  0  0  0
  7 23  1  1  0  0  0
  8 24  1  0  0  0  0
  9 10  2  0  0  0  0
  9 11  1  0  0  0  0
 10 25  1  0  0  0  0
 10 26  1  0  0  0  0
 11 27  1  0  0  0  0
 11 28  1  0  0  0  0
 11 29  1  0  0  0  0
M  END
$$$$
