
 OpenBabel07222214433D

 17 17  0  0  0  0  0  0  0  0999 V2000
    0.9690   -0.0088    0.0146 C   0  0  0  0  0  0  0  0  0  0  0  0
    2.4878   -0.1156    0.0335 C   0  0  0  0  0  0  0  0  0  0  0  0
    3.0106   -1.3366   -0.6328 C   0  0  0  0  0  0  0  0  0  0  0  0
    4.0042   -1.0098   -1.4580 C   0  0  0  0  0  0  0  0  0  0  0  0
    4.1705    0.4559   -1.3851 C   0  0  0  0  0  0  0  0  0  0  0  0
    5.0799    1.1092   -1.8690 O   0  0  0  0  0  0  0  0  0  0  0  0
    3.1152    0.9597   -0.6742 O   0  0  0  0  0  0  0  0  0  0  0  0
    4.7504   -1.8414   -2.2422 O   0  0  0  0  0  0  0  0  0  0  0  0
    2.4713   -2.6970   -0.3894 C   0  0  0  0  0  0  0  0  0  0  0  0
    0.5252   -0.8058    0.6227 H   0  0  0  0  0  0  0  0  0  0  0  0
    0.5642   -0.0897   -0.9994 H   0  0  0  0  0  0  0  0  0  0  0  0
    0.6304    0.9453    0.4296 H   0  0  0  0  0  0  0  0  0  0  0  0
    2.8331   -0.0519    1.0713 H   0  0  0  0  0  0  0  0  0  0  0  0
    4.4228   -2.7486   -2.1290 H   0  0  0  0  0  0  0  0  0  0  0  0
    1.6594   -2.6938    0.3419 H   0  0  0  0  0  0  0  0  0  0  0  0
    3.2554   -3.3560   -0.0072 H   0  0  0  0  0  0  0  0  0  0  0  0
    2.0757   -3.1128   -1.3218 H   0  0  0  0  0  0  0  0  0  0  0  0
  1  2  1  0  0  0  0
  1 10  1  0  0  0  0
  1 11  1  0  0  0  0
  1 12  1  0  0  0  0
  2  3  1  0  0  0  0
  2  7  1  0  0  0  0
  2 13  1  0  0  0  0
  3  4  2  0  0  0  0
  3  9  1  0  0  0  0
  4  5  1  0  0  0  0
  4  8  1  0  0  0  0
  5  6  2  0  0  0  0
  5  7  1  0  0  0  0
  8 14  1  0  0  0  0
  9 15  1  0  0  0  0
  9 16  1  0  0  0  0
  9 17  1  0  0  0  0
M  END
$$$$
