
 OpenBabel07222214443D

 34 34  0  0  0  0  0  0  0  0999 V2000
    0.9776    0.0872    0.0213 C   0  0  0  0  0  0  0  0  0  0  0  0
    2.4843    0.0560   -0.0229 C   0  0  0  0  0  0  0  0  0  0  0  0
    3.0958   -0.8169   -0.6371 O   0  0  0  0  0  0  0  0  0  0  0  0
    3.1966    1.1287    0.7232 C   0  0  0  0  0  0  0  0  0  0  0  0
    4.5374    1.1557    0.8183 C   0  0  0  0  0  0  0  0  0  0  0  0
    5.2674    2.1880    1.5641 C   0  0  0  0  0  0  0  0  0  0  0  0
    4.9624    2.4885    2.8514 C   0  0  0  0  0  0  0  0  0  0  0  0
    4.0092    1.7071    3.7229 C   0  0  0  0  0  0  0  0  0  0  0  0
    5.5613    3.6727    3.5811 C   0  0  0  0  0  0  0  0  0  0  0  0
    6.3200    4.6419    2.6863 C   0  0  0  0  0  0  0  0  0  0  0  0
    7.2135    3.8645    1.7365 C   0  0  0  0  0  0  0  0  0  0  0  0
    6.3951    2.9270    0.8012 C   0  0  0  0  0  0  0  0  0  0  0  0
    7.4187    1.9522    0.1747 C   0  0  0  0  0  0  0  0  0  0  0  0
    5.7689    3.7731   -0.3255 C   0  0  0  0  0  0  0  0  0  0  0  0
    0.5803   -0.7363   -0.5801 H   0  0  0  0  0  0  0  0  0  0  0  0
    0.6075    1.0274   -0.3965 H   0  0  0  0  0  0  0  0  0  0  0  0
    0.6240   -0.0354    1.0490 H   0  0  0  0  0  0  0  0  0  0  0  0
    2.5781    1.8650    1.2234 H   0  0  0  0  0  0  0  0  0  0  0  0
    5.1247    0.4026    0.2965 H   0  0  0  0  0  0  0  0  0  0  0  0
    3.5900    0.8203    3.2445 H   0  0  0  0  0  0  0  0  0  0  0  0
    3.1767    2.3452    4.0347 H   0  0  0  0  0  0  0  0  0  0  0  0
    4.5356    1.3500    4.6137 H   0  0  0  0  0  0  0  0  0  0  0  0
    6.2306    3.2992    4.3654 H   0  0  0  0  0  0  0  0  0  0  0  0
    4.7610    4.2339    4.0796 H   0  0  0  0  0  0  0  0  0  0  0  0
    6.9202    5.3201    3.3037 H   0  0  0  0  0  0  0  0  0  0  0  0
    5.6178    5.2707    2.1266 H   0  0  0  0  0  0  0  0  0  0  0  0
    7.9243    3.2777    2.3358 H   0  0  0  0  0  0  0  0  0  0  0  0
    7.8180    4.5656    1.1472 H   0  0  0  0  0  0  0  0  0  0  0  0
    7.8975    1.3318    0.9417 H   0  0  0  0  0  0  0  0  0  0  0  0
    8.2114    2.5017   -0.3479 H   0  0  0  0  0  0  0  0  0  0  0  0
    6.9620    1.2842   -0.5615 H   0  0  0  0  0  0  0  0  0  0  0  0
    5.0413    4.4916    0.0665 H   0  0  0  0  0  0  0  0  0  0  0  0
    5.2499    3.1457   -1.0581 H   0  0  0  0  0  0  0  0  0  0  0  0
    6.5365    4.3381   -0.8665 H   0  0  0  0  0  0  0  0  0  0  0  0
  1  2  1  0  0  0  0
  1 15  1  0  0  0  0
  1 16  1  0  0  0  0
  1 17  1  0  0  0  0
  2  3  2  0  0  0  0
  2  4  1  0  0  0  0
  4  5  2  0  0  0  0
  4 18  1  0  0  0  0
  5  6  1  0  0  0  0
  5 19  1  0  0  0  0
  6  7  2  0  0  0  0
  6 12  1  0  0  0  0
  7  8  1  0  0  0  0
  7  9  1  0  0  0  0
  8 20  1  0  0  0  0
  8 21  1  0  0  0  0
  8 22  1  0  0  0  0
  9 10  1  0  0  0  0
  9 23  1  0  0  0  0
  9 24  1  0  0  0  0
 10 11  1  0  0  0  0
 10 25  1  0  0  0  0
 10 26  1  0  0  0  0
 11 12  1  0  0  0  0
 11 27  1  0  0  0  0
 11 28  1  0  0  0  0
 12 13  1  0  0  0  0
 12 14  1  0  0  0  0
 13 29  1  0  0  0  0
 13 30  1  0  0  0  0
 13 31  1  0  0  0  0
 14 32  1  0  0  0  0
 14 33  1  0  0  0  0
 14 34  1  0  0  0  0
M  END
$$$$
