
 OpenBabel07202215583D

 24 24  0  0  0  0  0  0  0  0999 V2000
    1.0887   -0.0966    0.0661 C   0  0  0  0  0  0  0  0  0  0  0  0
    2.5118   -0.0709    0.0810 O   0  0  0  0  0  0  0  0  0  0  0  0
    3.1090    1.1656    0.0765 C   0  0  0  0  0  0  0  0  0  0  0  0
    4.5176    1.1203    0.0590 C   0  0  0  0  0  0  0  0  0  0  0  0
    5.2894    2.2951    0.0376 C   0  0  0  0  0  0  0  0  0  0  0  0
    6.7647    2.2183    0.0170 C   0  0  0  0  0  0  0  0  0  0  0  0
    7.5867    3.2858   -0.0075 C   0  0  0  0  0  0  0  0  0  0  0  0
    9.0758    3.2198   -0.0282 C   0  0  0  0  0  0  0  0  0  0  0  0
    4.6121    3.5205    0.0358 C   0  0  0  0  0  0  0  0  0  0  0  0
    3.2211    3.5831    0.0643 C   0  0  0  0  0  0  0  0  0  0  0  0
    2.4711    2.4126    0.0869 C   0  0  0  0  0  0  0  0  0  0  0  0
    1.1095    2.5313    0.1208 O   0  0  0  0  0  0  0  0  0  0  0  0
    0.7614   -1.1394    0.0537 H   0  0  0  0  0  0  0  0  0  0  0  0
    0.6943    0.3732   -0.8422 H   0  0  0  0  0  0  0  0  0  0  0  0
    0.6792    0.3548    0.9765 H   0  0  0  0  0  0  0  0  0  0  0  0
    5.0043    0.1458    0.0612 H   0  0  0  0  0  0  0  0  0  0  0  0
    7.1956    1.2194    0.0232 H   0  0  0  0  0  0  0  0  0  0  0  0
    7.1985    4.2976   -0.0142 H   0  0  0  0  0  0  0  0  0  0  0  0
    9.4486    2.1928   -0.0208 H   0  0  0  0  0  0  0  0  0  0  0  0
    9.4766    3.7432    0.8458 H   0  0  0  0  0  0  0  0  0  0  0  0
    9.4510    3.7211   -0.9262 H   0  0  0  0  0  0  0  0  0  0  0  0
    5.1484    4.4626    0.0137 H   0  0  0  0  0  0  0  0  0  0  0  0
    2.7465    4.5586    0.0668 H   0  0  0  0  0  0  0  0  0  0  0  0
    0.8621    3.4687    0.1464 H   0  0  0  0  0  0  0  0  0  0  0  0
  1  2  1  0  0  0  0
  1 13  1  0  0  0  0
  1 14  1  0  0  0  0
  1 15  1  0  0  0  0
  2  3  1  0  0  0  0
  3  4  1  0  0  0  0
  3 11  2  0  0  0  0
  4  5  2  0  0  0  0
  4 16  1  0  0  0  0
  5  6  1  0  0  0  0
  5  9  1  0  0  0  0
  6  7  2  0  0  0  0
  6 17  1  0  0  0  0
  7  8  1  0  0  0  0
  7 18  1  0  0  0  0
  8 19  1  0  0  0  0
  8 20  1  0  0  0  0
  8 21  1  0  0  0  0
  9 10  2  0  0  0  0
  9 22  1  0  0  0  0
 10 11  1  0  0  0  0
 10 23  1  0  0  0  0
 11 12  1  0  0  0  0
 12 24  1  0  0  0  0
M  END
$$$$
