
 OpenBabel07222214433D

 24 24  0  0  0  0  0  0  0  0999 V2000
    0.9385   -0.0108    0.0066 C   0  0  0  0  0  0  0  0  0  0  0  0
    2.3616    0.0149    0.0216 O   0  0  0  0  0  0  0  0  0  0  0  0
    2.9588    1.2513    0.0170 C   0  0  0  0  0  0  0  0  0  0  0  0
    4.3674    1.2060   -0.0004 C   0  0  0  0  0  0  0  0  0  0  0  0
    5.1392    2.3809   -0.0219 C   0  0  0  0  0  0  0  0  0  0  0  0
    6.6145    2.3040   -0.0424 C   0  0  0  0  0  0  0  0  0  0  0  0
    7.4365    3.3715   -0.0670 C   0  0  0  0  0  0  0  0  0  0  0  0
    8.9256    3.3055   -0.0877 C   0  0  0  0  0  0  0  0  0  0  0  0
    4.4619    3.6062   -0.0236 C   0  0  0  0  0  0  0  0  0  0  0  0
    3.0709    3.6688    0.0048 C   0  0  0  0  0  0  0  0  0  0  0  0
    2.3209    2.4983    0.0275 C   0  0  0  0  0  0  0  0  0  0  0  0
    0.9593    2.6171    0.0614 O   0  0  0  0  0  0  0  0  0  0  0  0
    0.6112   -1.0537   -0.0057 H   0  0  0  0  0  0  0  0  0  0  0  0
    0.5441    0.4590   -0.9016 H   0  0  0  0  0  0  0  0  0  0  0  0
    0.5290    0.4406    0.9170 H   0  0  0  0  0  0  0  0  0  0  0  0
    4.8541    0.2316    0.0018 H   0  0  0  0  0  0  0  0  0  0  0  0
    7.0454    1.3052   -0.0362 H   0  0  0  0  0  0  0  0  0  0  0  0
    7.0483    4.3834   -0.0736 H   0  0  0  0  0  0  0  0  0  0  0  0
    9.2984    2.2785   -0.0803 H   0  0  0  0  0  0  0  0  0  0  0  0
    9.3264    3.8290    0.7864 H   0  0  0  0  0  0  0  0  0  0  0  0
    9.3008    3.8069   -0.9857 H   0  0  0  0  0  0  0  0  0  0  0  0
    4.9982    4.5484   -0.0457 H   0  0  0  0  0  0  0  0  0  0  0  0
    2.5963    4.6444    0.0074 H   0  0  0  0  0  0  0  0  0  0  0  0
    0.7119    3.5545    0.0869 H   0  0  0  0  0  0  0  0  0  0  0  0
  1  2  1  0  0  0  0
  1 13  1  0  0  0  0
  1 14  1  0  0  0  0
  1 15  1  0  0  0  0
  2  3  1  0  0  0  0
  3  4  1  0  0  0  0
  3 11  2  0  0  0  0
  4  5  2  0  0  0  0
  4 16  1  0  0  0  0
  5  6  1  0  0  0  0
  5  9  1  0  0  0  0
  6  7  2  0  0  0  0
  6 17  1  0  0  0  0
  7  8  1  0  0  0  0
  7 18  1  0  0  0  0
  8 19  1  0  0  0  0
  8 20  1  0  0  0  0
  8 21  1  0  0  0  0
  9 10  2  0  0  0  0
  9 22  1  0  0  0  0
 10 11  1  0  0  0  0
 10 23  1  0  0  0  0
 11 12  1  0  0  0  0
 12 24  1  0  0  0  0
M  END
$$$$
