
 OpenBabel07222214433D

 26 26  0  0  0  0  0  0  0  0999 V2000
    0.9898   -0.0402    0.0777 C   0  0  0  0  0  0  0  0  0  0  0  0
    2.5083   -0.0232    0.0925 C   0  0  0  0  0  0  0  0  0  0  0  0
    2.9695    0.9926    1.0007 O   0  0  0  0  0  0  0  0  0  0  0  0
    4.3281    1.0634    1.1038 C   0  0  0  0  0  0  0  0  0  0  0  0
    5.1062    0.3208    0.5126 O   0  0  0  0  0  0  0  0  0  0  0  0
    4.7677    2.1437    2.0572 C   0  0  0  0  0  0  0  0  0  0  0  0
    5.3474    3.3594    1.3296 C   0  0  0  0  0  0  0  0  0  0  0  0
    6.6250    3.0004    0.5749 C   0  0  0  0  0  0  0  0  0  0  0  0
    5.6669    4.3542    2.3219 O   0  0  0  0  0  0  0  0  0  0  0  0
    4.6278    5.3347    2.2694 C   0  0  0  0  0  0  0  0  0  0  0  0
    3.6565    4.8658    1.2157 C   0  0  0  0  0  0  0  0  0  0  0  0
    4.3902    3.9287    0.4320 O   0  0  0  0  0  0  0  0  0  0  0  0
    0.6160   -0.8048   -0.6113 H   0  0  0  0  0  0  0  0  0  0  0  0
    0.5926    0.9317   -0.2315 H   0  0  0  0  0  0  0  0  0  0  0  0
    0.5931   -0.2485    1.0766 H   0  0  0  0  0  0  0  0  0  0  0  0
    2.8777    0.1926   -0.9167 H   0  0  0  0  0  0  0  0  0  0  0  0
    2.8764   -1.0048    0.4134 H   0  0  0  0  0  0  0  0  0  0  0  0
    5.5168    1.7175    2.7372 H   0  0  0  0  0  0  0  0  0  0  0  0
    3.9298    2.4301    2.7038 H   0  0  0  0  0  0  0  0  0  0  0  0
    7.3827    2.5963    1.2562 H   0  0  0  0  0  0  0  0  0  0  0  0
    7.0596    3.8783    0.0861 H   0  0  0  0  0  0  0  0  0  0  0  0
    6.4351    2.2695   -0.2163 H   0  0  0  0  0  0  0  0  0  0  0  0
    5.0620    6.3072    2.0152 H   0  0  0  0  0  0  0  0  0  0  0  0
    4.1544    5.4229    3.2527 H   0  0  0  0  0  0  0  0  0  0  0  0
    3.2852    5.6821    0.5898 H   0  0  0  0  0  0  0  0  0  0  0  0
    2.7958    4.3576    1.6633 H   0  0  0  0  0  0  0  0  0  0  0  0
  1  2  1  0  0  0  0
  1 13  1  0  0  0  0
  1 14  1  0  0  0  0
  1 15  1  0  0  0  0
  2  3  1  0  0  0  0
  2 16  1  0  0  0  0
  2 17  1  0  0  0  0
  3  4  1  0  0  0  0
  4  5  2  0  0  0  0
  4  6  1  0  0  0  0
  6  7  1  0  0  0  0
  6 18  1  0  0  0  0
  6 19  1  0  0  0  0
  7  8  1  0  0  0  0
  7  9  1  0  0  0  0
  7 12  1  0  0  0  0
  8 20  1  0  0  0  0
  8 21  1  0  0  0  0
  8 22  1  0  0  0  0
  9 10  1  0  0  0  0
 10 11  1  0  0  0  0
 10 23  1  0  0  0  0
 10 24  1  0  0  0  0
 11 12  1  0  0  0  0
 11 25  1  0  0  0  0
 11 26  1  0  0  0  0
M  END
$$$$
