
 OpenBabel07122215493D

 19 19  0  0  0  0  0  0  0  0999 V2000
    1.0505    0.0487   -0.0837 C   0  0  0  0  0  0  0  0  0  0  0  0
    2.5736    0.0571   -0.0906 C   0  0  0  0  0  0  0  0  0  0  0  0
    3.1213   -1.5793    0.4333 S   0  0  0  0  0  0  0  0  0  0  0  0
    3.4137   -0.9613    2.1041 C   0  0  0  0  0  0  0  0  0  0  0  0
    4.6648   -1.6142    2.6446 C   0  0  0  0  0  0  0  0  0  0  0  0
    3.5146    0.5490    1.9118 C   0  0  0  0  0  0  0  0  0  0  0  0
    3.0638    1.1061    0.8284 N   0  0  0  0  0  0  0  0  0  0  0  0
    4.0811    1.4096    3.0141 C   0  0  0  0  0  0  0  0  0  0  0  0
    0.6556   -0.7376   -0.7380 H   0  0  0  0  0  0  0  0  0  0  0  0
    0.6557    1.0060   -0.4359 H   0  0  0  0  0  0  0  0  0  0  0  0
    0.6509   -0.1156    0.9249 H   0  0  0  0  0  0  0  0  0  0  0  0
    2.9480    0.2528   -1.1005 H   0  0  0  0  0  0  0  0  0  0  0  0
    2.5426   -1.1698    2.7341 H   0  0  0  0  0  0  0  0  0  0  0  0
    5.5477   -1.3404    2.0568 H   0  0  0  0  0  0  0  0  0  0  0  0
    4.5658   -2.7051    2.6479 H   0  0  0  0  0  0  0  0  0  0  0  0
    4.8518   -1.3068    3.6772 H   0  0  0  0  0  0  0  0  0  0  0  0
    4.3466    0.8152    3.8899 H   0  0  0  0  0  0  0  0  0  0  0  0
    3.3444    2.1572    3.3201 H   0  0  0  0  0  0  0  0  0  0  0  0
    4.9789    1.9193    2.6522 H   0  0  0  0  0  0  0  0  0  0  0  0
  1  2  1  0  0  0  0
  1  9  1  0  0  0  0
  1 10  1  0  0  0  0
  1 11  1  0  0  0  0
  2  3  1  0  0  0  0
  2  7  1  0  0  0  0
  2 12  1  0  0  0  0
  3  4  1  0  0  0  0
  4  5  1  0  0  0  0
  4  6  1  0  0  0  0
  4 13  1  0  0  0  0
  5 14  1  0  0  0  0
  5 15  1  0  0  0  0
  5 16  1  0  0  0  0
  6  7  2  0  0  0  0
  6  8  1  0  0  0  0
  8 17  1  0  0  0  0
  8 18  1  0  0  0  0
  8 19  1  0  0  0  0
M  END
$$$$
