
 OpenBabel07122215493D

 15 15  0  0  0  0  0  0  0  0999 V2000
    1.0236   -0.0465   -0.0567 C   0  0  0  0  0  0  0  0  0  0  0  0
    2.5458   -0.0292   -0.0503 C   0  0  0  0  0  0  0  0  0  0  0  0
    2.9765    0.8477    0.9874 O   0  0  0  0  0  0  0  0  0  0  0  0
    4.2997    0.9948    1.0922 C   0  0  0  0  0  0  0  0  0  0  0  0
    5.1072    1.0946    0.0607 N   0  0  0  0  0  0  0  0  0  0  0  0
    6.4009    1.3114    0.5099 C   0  0  0  0  0  0  0  0  0  0  0  0
    6.5625    1.3272    1.8786 C   0  0  0  0  0  0  0  0  0  0  0  0
    5.0381    1.1297    2.6347 S   0  0  0  0  0  0  0  0  0  0  0  0
    0.6414   -0.7504   -0.8021 H   0  0  0  0  0  0  0  0  0  0  0  0
    0.6251    0.9490   -0.2802 H   0  0  0  0  0  0  0  0  0  0  0  0
    0.6313   -0.3309    0.9259 H   0  0  0  0  0  0  0  0  0  0  0  0
    2.9095    0.2960   -1.0315 H   0  0  0  0  0  0  0  0  0  0  0  0
    2.9120   -1.0419    0.1569 H   0  0  0  0  0  0  0  0  0  0  0  0
    7.2014    1.4498   -0.2076 H   0  0  0  0  0  0  0  0  0  0  0  0
    7.4694    1.4585    2.4523 H   0  0  0  0  0  0  0  0  0  0  0  0
  1  2  1  0  0  0  0
  1  9  1  0  0  0  0
  1 10  1  0  0  0  0
  1 11  1  0  0  0  0
  2  3  1  0  0  0  0
  2 12  1  0  0  0  0
  2 13  1  0  0  0  0
  3  4  1  0  0  0  0
  4  5  2  0  0  0  0
  4  8  1  0  0  0  0
  5  6  1  0  0  0  0
  6  7  2  0  0  0  0
  6 14  1  0  0  0  0
  7  8  1  0  0  0  0
  7 15  1  0  0  0  0
M  END
$$$$
