
 OpenBabel07202215583D

 32 32  0  0  0  0  0  0  0  0999 V2000
    0.8441    0.1065    0.0699 C   0  0  0  0  0  0  0  0  0  0  0  0
    2.3420    0.0093    0.0297 C   0  0  0  0  0  0  0  0  0  0  0  0
    2.7272   -1.3527   -0.5739 C   0  0  0  0  0  0  0  0  0  0  0  0
    4.2197   -1.3733   -0.5978 C   0  0  0  0  0  0  0  0  0  0  0  0
    4.9477   -2.5887   -1.1357 C   0  0  0  0  0  0  0  0  0  0  0  0
    6.4989   -2.4915   -1.0925 C   0  0  0  0  0  0  0  0  0  0  0  0
    7.0782   -2.3904    0.3270 C   0  0  0  0  0  0  0  0  0  0  0  0
    6.8142   -1.0648    1.0231 C   0  0  0  0  0  0  0  0  0  0  0  0
    6.9679    0.1483    0.1100 C   0  0  0  0  0  0  0  0  0  0  0  0
    7.1385    1.2702    0.6193 O   0  0  0  0  0  0  0  0  0  0  0  0
    6.8126    0.0379   -1.4041 C   0  0  0  0  0  0  0  0  0  0  0  0
    7.0798   -1.3560   -1.9495 C   0  0  0  0  0  0  0  0  0  0  0  0
    0.5298    1.0612    0.4944 H   0  0  0  0  0  0  0  0  0  0  0  0
    0.4449   -0.7082    0.6797 H   0  0  0  0  0  0  0  0  0  0  0  0
    0.4484    0.0162   -0.9452 H   0  0  0  0  0  0  0  0  0  0  0  0
    2.7584    0.1256    1.0414 H   0  0  0  0  0  0  0  0  0  0  0  0
    2.7595    0.8371   -0.5629 H   0  0  0  0  0  0  0  0  0  0  0  0
    2.3433   -1.4486   -1.5928 H   0  0  0  0  0  0  0  0  0  0  0  0
    2.3531   -2.1732    0.0433 H   0  0  0  0  0  0  0  0  0  0  0  0
    4.4840   -1.1971    0.4298 H   0  0  0  0  0  0  0  0  0  0  0  0
    4.4595   -0.5059   -1.1873 H   0  0  0  0  0  0  0  0  0  0  0  0
    4.6370   -2.7539   -2.1737 H   0  0  0  0  0  0  0  0  0  0  0  0
    4.6368   -3.4714   -0.5655 H   0  0  0  0  0  0  0  0  0  0  0  0
    6.8734   -3.4339   -1.5199 H   0  0  0  0  0  0  0  0  0  0  0  0
    8.1679   -2.5148    0.2739 H   0  0  0  0  0  0  0  0  0  0  0  0
    6.7081   -3.2229    0.9389 H   0  0  0  0  0  0  0  0  0  0  0  0
    7.4962   -0.9525    1.8709 H   0  0  0  0  0  0  0  0  0  0  0  0
    5.8436   -1.0711    1.5231 H   0  0  0  0  0  0  0  0  0  0  0  0
    7.4855    0.7570   -1.8799 H   0  0  0  0  0  0  0  0  0  0  0  0
    5.8393    0.4054   -1.7311 H   0  0  0  0  0  0  0  0  0  0  0  0
    8.1696   -1.4777   -2.0101 H   0  0  0  0  0  0  0  0  0  0  0  0
    6.7098   -1.4413   -2.9794 H   0  0  0  0  0  0  0  0  0  0  0  0
  1  2  1  0  0  0  0
  1 13  1  0  0  0  0
  1 14  1  0  0  0  0
  1 15  1  0  0  0  0
  2  3  1  0  0  0  0
  2 16  1  0  0  0  0
  2 17  1  0  0  0  0
  3  4  1  0  0  0  0
  3 18  1  0  0  0  0
  3 19  1  0  0  0  0
  4  5  1  0  0  0  0
  4 20  1  0  0  0  0
  4 21  1  0  0  0  0
  5  6  1  0  0  0  0
  5 22  1  0  0  0  0
  5 23  1  0  0  0  0
  6  7  1  0  0  0  0
  6 12  1  0  0  0  0
  6 24  1  0  0  0  0
  7  8  1  0  0  0  0
  7 25  1  0  0  0  0
  7 26  1  0  0  0  0
  8  9  1  0  0  0  0
  8 27  1  0  0  0  0
  8 28  1  0  0  0  0
  9 10  2  0  0  0  0
  9 11  1  0  0  0  0
 11 12  1  0  0  0  0
 11 29  1  0  0  0  0
 11 30  1  0  0  0  0
 12 31  1  0  0  0  0
 12 32  1  0  0  0  0
M  END
$$$$
