
 OpenBabel07202215583D

 23 23  0  0  0  0  0  0  0  0999 V2000
    0.9515   -0.0655   -0.0346 C   0  0  0  0  0  0  0  0  0  0  0  0
    2.4937   -0.0852   -0.0186 C   0  0  0  0  0  0  0  0  0  0  0  0
    2.9903    0.7599    1.1768 C   0  0  0  0  0  0  0  0  0  0  0  0
    2.5369    2.1915    1.1425 C   0  0  0  0  0  0  0  0  0  0  0  0
    2.8150    2.9930    2.0360 O   0  0  0  0  0  0  0  0  0  0  0  0
    3.0329   -1.5188    0.0575 C   0  0  0  0  0  0  0  0  0  0  0  0
    2.2828   -2.6151   -0.4017 C   0  0  0  0  0  0  0  0  0  0  0  0
    2.6945   -3.9250   -0.1545 C   0  0  0  0  0  0  0  0  0  0  0  0
    3.9171   -4.1674    0.4595 C   0  0  0  0  0  0  0  0  0  0  0  0
    4.7193   -3.1002    0.8416 C   0  0  0  0  0  0  0  0  0  0  0  0
    4.2860   -1.7917    0.6326 C   0  0  0  0  0  0  0  0  0  0  0  0
    0.5467    0.9478   -0.0804 H   0  0  0  0  0  0  0  0  0  0  0  0
    0.5521   -0.5460    0.8665 H   0  0  0  0  0  0  0  0  0  0  0  0
    0.5440   -0.5820   -0.9086 H   0  0  0  0  0  0  0  0  0  0  0  0
    2.8577    0.3634   -0.9532 H   0  0  0  0  0  0  0  0  0  0  0  0
    4.0834    0.8175    1.1900 H   0  0  0  0  0  0  0  0  0  0  0  0
    2.6579    0.3102    2.1209 H   0  0  0  0  0  0  0  0  0  0  0  0
    1.9668    2.5192    0.2618 H   0  0  0  0  0  0  0  0  0  0  0  0
    1.3451   -2.4848   -0.9342 H   0  0  0  0  0  0  0  0  0  0  0  0
    2.0456   -4.7531   -0.4264 H   0  0  0  0  0  0  0  0  0  0  0  0
    4.2477   -5.1862    0.6326 H   0  0  0  0  0  0  0  0  0  0  0  0
    5.6744   -3.2764    1.3284 H   0  0  0  0  0  0  0  0  0  0  0  0
    4.9496   -0.9974    0.9609 H   0  0  0  0  0  0  0  0  0  0  0  0
  1  2  1  0  0  0  0
  1 12  1  0  0  0  0
  1 13  1  0  0  0  0
  1 14  1  0  0  0  0
  2  3  1  0  0  0  0
  2  6  1  0  0  0  0
  2 15  1  0  0  0  0
  3  4  1  0  0  0  0
  3 16  1  0  0  0  0
  3 17  1  0  0  0  0
  4  5  2  0  0  0  0
  4 18  1  0  0  0  0
  6  7  2  0  0  0  0
  6 11  1  0  0  0  0
  7  8  1  0  0  0  0
  7 19  1  0  0  0  0
  8  9  2  0  0  0  0
  8 20  1  0  0  0  0
  9 10  1  0  0  0  0
  9 21  1  0  0  0  0
 10 11  2  0  0  0  0
 10 22  1  0  0  0  0
 11 23  1  0  0  0  0
M  END
$$$$
