
 OpenBabel07222214433D

 35 34  0  0  0  0  0  0  0  0999 V2000
    1.0554   -0.0566    0.0611 C   0  0  0  0  0  0  0  0  0  0  0  0
    2.5739   -0.0422    0.0504 C   0  0  0  0  0  0  0  0  0  0  0  0
    3.1020    1.1103   -0.8051 C   0  0  0  0  0  0  0  0  0  0  0  0
    4.6273    1.1233   -0.8148 C   0  0  0  0  0  0  0  0  0  0  0  0
    5.2033    2.2638   -1.6613 C   0  0  0  0  0  0  0  0  0  0  0  0
    6.7183    2.2218   -1.6301 C   0  0  0  0  0  0  0  0  0  0  0  0
    7.3737    1.3897   -1.0125 O   0  0  0  0  0  0  0  0  0  0  0  0
    7.2636    3.2275   -2.3766 O   0  0  0  0  0  0  0  0  0  0  0  0
    8.7038    3.2186   -2.3700 C   0  0  0  0  0  0  0  0  0  0  0  0
    9.2374    4.3674   -3.2227 C   0  0  0  0  0  0  0  0  0  0  0  0
   10.7675    4.3872   -3.2374 C   0  0  0  0  0  0  0  0  0  0  0  0
   11.3053    5.5357   -4.0899 C   0  0  0  0  0  0  0  0  0  0  0  0
   12.8255    5.5453   -4.0970 C   0  0  0  0  0  0  0  0  0  0  0  0
    0.6851   -0.8832    0.6746 H   0  0  0  0  0  0  0  0  0  0  0  0
    0.6619   -0.1793   -0.9529 H   0  0  0  0  0  0  0  0  0  0  0  0
    0.6619    0.8784    0.4720 H   0  0  0  0  0  0  0  0  0  0  0  0
    2.9432   -0.9989   -0.3383 H   0  0  0  0  0  0  0  0  0  0  0  0
    2.9432    0.0528    1.0786 H   0  0  0  0  0  0  0  0  0  0  0  0
    2.7254    2.0618   -0.4113 H   0  0  0  0  0  0  0  0  0  0  0  0
    2.7254    1.0088   -1.8299 H   0  0  0  0  0  0  0  0  0  0  0  0
    4.9948    0.1625   -1.1976 H   0  0  0  0  0  0  0  0  0  0  0  0
    4.9948    1.2116    0.2157 H   0  0  0  0  0  0  0  0  0  0  0  0
    4.8622    3.2262   -1.2642 H   0  0  0  0  0  0  0  0  0  0  0  0
    4.8622    2.1624   -2.6975 H   0  0  0  0  0  0  0  0  0  0  0  0
    9.0625    2.2650   -2.7764 H   0  0  0  0  0  0  0  0  0  0  0  0
    9.0625    3.3315   -1.3396 H   0  0  0  0  0  0  0  0  0  0  0  0
    8.8531    5.3195   -2.8375 H   0  0  0  0  0  0  0  0  0  0  0  0
    8.8531    4.2744   -4.2456 H   0  0  0  0  0  0  0  0  0  0  0  0
   11.1466    3.4348   -3.6287 H   0  0  0  0  0  0  0  0  0  0  0  0
   11.1466    4.4860   -2.2125 H   0  0  0  0  0  0  0  0  0  0  0  0
   10.9397    6.4932   -3.7011 H   0  0  0  0  0  0  0  0  0  0  0  0
   10.9397    5.4407   -5.1190 H   0  0  0  0  0  0  0  0  0  0  0  0
   13.2194    5.6674   -3.0829 H   0  0  0  0  0  0  0  0  0  0  0  0
   13.1994    6.3710   -4.7099 H   0  0  0  0  0  0  0  0  0  0  0  0
   13.2194    4.6100   -4.5075 H   0  0  0  0  0  0  0  0  0  0  0  0
  1  2  1  0  0  0  0
  1 14  1  0  0  0  0
  1 15  1  0  0  0  0
  1 16  1  0  0  0  0
  2  3  1  0  0  0  0
  2 17  1  0  0  0  0
  2 18  1  0  0  0  0
  3  4  1  0  0  0  0
  3 19  1  0  0  0  0
  3 20  1  0  0  0  0
  4  5  1  0  0  0  0
  4 21  1  0  0  0  0
  4 22  1  0  0  0  0
  5  6  1  0  0  0  0
  5 23  1  0  0  0  0
  5 24  1  0  0  0  0
  6  7  2  0  0  0  0
  6  8  1  0  0  0  0
  8  9  1  0  0  0  0
  9 10  1  0  0  0  0
  9 25  1  0  0  0  0
  9 26  1  0  0  0  0
 10 11  1  0  0  0  0
 10 27  1  0  0  0  0
 10 28  1  0  0  0  0
 11 12  1  0  0  0  0
 11 29  1  0  0  0  0
 11 30  1  0  0  0  0
 12 13  1  0  0  0  0
 12 31  1  0  0  0  0
 12 32  1  0  0  0  0
 13 33  1  0  0  0  0
 13 34  1  0  0  0  0
 13 35  1  0  0  0  0
M  END
$$$$
