
 OpenBabel07202215583D

 18 18  0  0  0  0  0  0  0  0999 V2000
    1.1221   -0.0144    0.0371 C   0  0  0  0  0  0  0  0  0  0  0  0
    2.5425    0.0917    0.0129 O   0  0  0  0  0  0  0  0  0  0  0  0
    3.1701   -0.0068    1.2241 C   0  0  0  0  0  0  0  0  0  0  0  0
    4.3314    0.7590    1.3725 C   0  0  0  0  0  0  0  0  0  0  0  0
    5.1138    0.6511    2.5275 C   0  0  0  0  0  0  0  0  0  0  0  0
    4.6929   -0.1826    3.5653 C   0  0  0  0  0  0  0  0  0  0  0  0
    3.5414   -0.9590    3.4181 C   0  0  0  0  0  0  0  0  0  0  0  0
    2.7863   -0.8769    2.2446 C   0  0  0  0  0  0  0  0  0  0  0  0
    5.4380   -0.2033    4.8397 C   0  0  0  0  0  0  0  0  0  0  0  0
    5.0733   -0.8838    5.7951 O   0  0  0  0  0  0  0  0  0  0  0  0
    0.7710   -0.0225   -0.9999 H   0  0  0  0  0  0  0  0  0  0  0  0
    0.6921    0.8599    0.5349 H   0  0  0  0  0  0  0  0  0  0  0  0
    0.7630   -0.9388    0.4978 H   0  0  0  0  0  0  0  0  0  0  0  0
    4.6223    1.4522    0.5860 H   0  0  0  0  0  0  0  0  0  0  0  0
    6.0375    1.2186    2.6017 H   0  0  0  0  0  0  0  0  0  0  0  0
    3.2323   -1.6363    4.2118 H   0  0  0  0  0  0  0  0  0  0  0  0
    1.9182   -1.5195    2.1509 H   0  0  0  0  0  0  0  0  0  0  0  0
    6.3252    0.4459    4.9089 H   0  0  0  0  0  0  0  0  0  0  0  0
  1  2  1  0  0  0  0
  1 11  1  0  0  0  0
  1 12  1  0  0  0  0
  1 13  1  0  0  0  0
  2  3  1  0  0  0  0
  3  4  2  0  0  0  0
  3  8  1  0  0  0  0
  4  5  1  0  0  0  0
  4 14  1  0  0  0  0
  5  6  2  0  0  0  0
  5 15  1  0  0  0  0
  6  7  1  0  0  0  0
  6  9  1  0  0  0  0
  7  8  2  0  0  0  0
  7 16  1  0  0  0  0
  8 17  1  0  0  0  0
  9 10  2  0  0  0  0
  9 18  1  0  0  0  0
M  END
$$$$
