
 OpenBabel07122215493D

 47 47  0  0  0  0  0  0  0  0999 V2000
    0.8480   -0.0481   -0.2325 C   0  0  0  0  0  0  0  0  0  0  0  0
    2.3811   -0.0446   -0.0906 C   0  0  0  0  0  0  0  0  0  0  0  0
    2.9256    1.1030    0.8010 C   0  0  0  0  0  0  0  0  0  0  0  0
    1.8285    2.0873    1.1714 C   0  0  0  0  0  0  0  0  0  0  0  0
    2.3059    3.3503    1.8540 C   0  0  0  0  0  0  0  0  0  0  0  0
    2.2265    3.3180    3.3768 C   0  0  0  0  0  0  0  0  0  0  0  0
    1.0986    2.4471    3.9479 C   0  0  0  0  0  0  0  0  0  0  0  0
    1.1278    2.4372    5.4682 C   0  0  0  0  0  0  0  0  0  0  0  0
    0.4274    1.2112    6.0792 C   0  0  0  0  0  0  0  0  0  0  0  0
    1.2621   -0.0633    5.8698 C   0  0  0  0  0  0  0  0  0  0  0  0
    0.5052   -1.2983    5.3834 C   0  0  0  0  0  0  0  0  0  0  0  0
    1.5162   -2.4081    5.0299 C   0  0  0  0  0  0  0  0  0  0  0  0
    1.3186   -2.9186    3.6046 C   0  0  0  0  0  0  0  0  0  0  0  0
    2.3847   -2.3099    2.7020 C   0  0  0  0  0  0  0  0  0  0  0  0
    1.9445   -2.1531    1.2799 C   0  0  0  0  0  0  0  0  0  0  0  0
    0.8634   -2.5971    0.8739 O   0  0  0  0  0  0  0  0  0  0  0  0
    2.9077   -1.4129    0.3698 C   0  0  0  0  0  0  0  0  0  0  0  0
    0.4666    0.8651   -0.6942 H   0  0  0  0  0  0  0  0  0  0  0  0
    0.3657   -0.1431    0.7498 H   0  0  0  0  0  0  0  0  0  0  0  0
    0.5084   -0.8719   -0.8617 H   0  0  0  0  0  0  0  0  0  0  0  0
    2.7980    0.1338   -1.0911 H   0  0  0  0  0  0  0  0  0  0  0  0
    3.7209    1.6299    0.2567 H   0  0  0  0  0  0  0  0  0  0  0  0
    3.3985    0.7179    1.7146 H   0  0  0  0  0  0  0  0  0  0  0  0
    1.0983    1.5426    1.7659 H   0  0  0  0  0  0  0  0  0  0  0  0
    1.2798    2.4115    0.2864 H   0  0  0  0  0  0  0  0  0  0  0  0
    1.6710    4.1691    1.4934 H   0  0  0  0  0  0  0  0  0  0  0  0
    3.3252    3.5990    1.5343 H   0  0  0  0  0  0  0  0  0  0  0  0
    2.1130    4.3500    3.7311 H   0  0  0  0  0  0  0  0  0  0  0  0
    3.1874    2.9569    3.7603 H   0  0  0  0  0  0  0  0  0  0  0  0
    1.2296    1.4119    3.6259 H   0  0  0  0  0  0  0  0  0  0  0  0
    0.1244    2.7867    3.5712 H   0  0  0  0  0  0  0  0  0  0  0  0
    0.6765    3.3642    5.8333 H   0  0  0  0  0  0  0  0  0  0  0  0
    2.1735    2.4269    5.7954 H   0  0  0  0  0  0  0  0  0  0  0  0
   -0.5986    1.1117    5.7065 H   0  0  0  0  0  0  0  0  0  0  0  0
    0.3601    1.3939    7.1581 H   0  0  0  0  0  0  0  0  0  0  0  0
    1.7592   -0.3158    6.8129 H   0  0  0  0  0  0  0  0  0  0  0  0
    2.0614    0.1355    5.1478 H   0  0  0  0  0  0  0  0  0  0  0  0
   -0.1154   -1.0310    4.5196 H   0  0  0  0  0  0  0  0  0  0  0  0
   -0.1735   -1.6723    6.1590 H   0  0  0  0  0  0  0  0  0  0  0  0
    1.4215   -3.2400    5.7347 H   0  0  0  0  0  0  0  0  0  0  0  0
    2.5480   -2.0478    5.1485 H   0  0  0  0  0  0  0  0  0  0  0  0
    0.3023   -2.7052    3.2526 H   0  0  0  0  0  0  0  0  0  0  0  0
    1.4206   -4.0101    3.5779 H   0  0  0  0  0  0  0  0  0  0  0  0
    3.2737   -2.9492    2.6943 H   0  0  0  0  0  0  0  0  0  0  0  0
    2.6677   -1.3109    3.0523 H   0  0  0  0  0  0  0  0  0  0  0  0
    3.0977   -2.0663   -0.4876 H   0  0  0  0  0  0  0  0  0  0  0  0
    3.8717   -1.3092    0.8853 H   0  0  0  0  0  0  0  0  0  0  0  0
  1  2  1  0  0  0  0
  1 18  1  0  0  0  0
  1 19  1  0  0  0  0
  1 20  1  0  0  0  0
  2  3  1  0  0  0  0
  2 17  1  0  0  0  0
  2 21  1  0  0  0  0
  3  4  1  0  0  0  0
  3 22  1  0  0  0  0
  3 23  1  0  0  0  0
  4  5  1  0  0  0  0
  4 24  1  0  0  0  0
  4 25  1  0  0  0  0
  5  6  1  0  0  0  0
  5 26  1  0  0  0  0
  5 27  1  0  0  0  0
  6  7  1  0  0  0  0
  6 28  1  0  0  0  0
  6 29  1  0  0  0  0
  7  8  1  0  0  0  0
  7 30  1  0  0  0  0
  7 31  1  0  0  0  0
  8  9  1  0  0  0  0
  8 32  1  0  0  0  0
  8 33  1  0  0  0  0
  9 10  1  0  0  0  0
  9 34  1  0  0  0  0
  9 35  1  0  0  0  0
 10 11  1  0  0  0  0
 10 36  1  0  0  0  0
 10 37  1  0  0  0  0
 11 12  1  0  0  0  0
 11 38  1  0  0  0  0
 11 39  1  0  0  0  0
 12 13  1  0  0  0  0
 12 40  1  0  0  0  0
 12 41  1  0  0  0  0
 13 14  1  0  0  0  0
 13 42  1  0  0  0  0
 13 43  1  0  0  0  0
 14 15  1  0  0  0  0
 14 44  1  0  0  0  0
 14 45  1  0  0  0  0
 15 16  2  0  0  0  0
 15 17  1  0  0  0  0
 17 46  1  0  0  0  0
 17 47  1  0  0  0  0
M  END
$$$$
