
 OpenBabel07122215493D

 11 10  0  0  0  0  0  0  0  0999 V2000
    0.9117   -0.0817   -0.0434 C   0  0  0  0  0  0  0  0  0  0  0  0
    2.4253   -0.0255    0.0240 C   0  0  0  0  0  0  0  0  0  0  0  0
    3.0070    0.8691    1.0971 C   0  0  0  0  0  0  0  0  0  0  0  0
    2.1383    1.5282    1.8877 O   0  0  0  0  0  0  0  0  0  0  0  0
    4.2168    0.9953    1.2485 O   0  0  0  0  0  0  0  0  0  0  0  0
    0.5814   -0.7494   -0.8443 H   0  0  0  0  0  0  0  0  0  0  0  0
    0.4961    0.9123   -0.2385 H   0  0  0  0  0  0  0  0  0  0  0  0
    0.4961   -0.4525    0.8993 H   0  0  0  0  0  0  0  0  0  0  0  0
    2.8090    0.3251   -0.9413 H   0  0  0  0  0  0  0  0  0  0  0  0
    2.8090   -1.0381    0.1952 H   0  0  0  0  0  0  0  0  0  0  0  0
    1.1891    1.3912    1.7234 H   0  0  0  0  0  0  0  0  0  0  0  0
  1  2  1  0  0  0  0
  1  6  1  0  0  0  0
  1  7  1  0  0  0  0
  1  8  1  0  0  0  0
  2  3  1  0  0  0  0
  2  9  1  0  0  0  0
  2 10  1  0  0  0  0
  3  4  1  0  0  0  0
  3  5  2  0  0  0  0
  4 11  1  0  0  0  0
M  END
$$$$
