
 OpenBabel07202215583D

 38 37  0  0  0  0  0  0  0  0999 V2000
    0.9090   -0.0549   -0.0379 C   0  0  0  0  0  0  0  0  0  0  0  0
    2.4254   -0.0594   -0.0316 C   0  0  0  0  0  0  0  0  0  0  0  0
    2.9499   -0.8915    1.1308 C   0  0  0  0  0  0  0  0  0  0  0  0
    4.4714   -0.8989    1.1412 C   0  0  0  0  0  0  0  0  0  0  0  0
    4.9863   -1.7326    2.3059 C   0  0  0  0  0  0  0  0  0  0  0  0
    6.5077   -1.7434    2.3209 C   0  0  0  0  0  0  0  0  0  0  0  0
    7.0252   -2.5791    3.4883 C   0  0  0  0  0  0  0  0  0  0  0  0
    8.5484   -2.5863    3.4984 C   0  0  0  0  0  0  0  0  0  0  0  0
    9.1234   -3.4119    4.6518 C   0  0  0  0  0  0  0  0  0  0  0  0
   10.6378   -3.3807    4.6081 C   0  0  0  0  0  0  0  0  0  0  0  0
   11.2930   -2.7773    3.7652 O   0  0  0  0  0  0  0  0  0  0  0  0
   11.1824   -4.1095    5.6262 O   0  0  0  0  0  0  0  0  0  0  0  0
   12.6213   -4.1054    5.6205 C   0  0  0  0  0  0  0  0  0  0  0  0
   13.1464   -4.9346    6.7789 C   0  0  0  0  0  0  0  0  0  0  0  0
    0.5349    0.5429   -0.8730 H   0  0  0  0  0  0  0  0  0  0  0  0
    0.5197    0.3697    0.8930 H   0  0  0  0  0  0  0  0  0  0  0  0
    0.5197   -1.0730   -0.1397 H   0  0  0  0  0  0  0  0  0  0  0  0
    2.7959    0.9692    0.0485 H   0  0  0  0  0  0  0  0  0  0  0  0
    2.7959   -0.4668   -0.9795 H   0  0  0  0  0  0  0  0  0  0  0  0
    2.5762   -1.9199    1.0512 H   0  0  0  0  0  0  0  0  0  0  0  0
    2.5762   -0.4846    2.0786 H   0  0  0  0  0  0  0  0  0  0  0  0
    4.8480    0.1280    1.2237 H   0  0  0  0  0  0  0  0  0  0  0  0
    4.8480   -1.3081    0.1957 H   0  0  0  0  0  0  0  0  0  0  0  0
    4.6086   -2.7590    2.2227 H   0  0  0  0  0  0  0  0  0  0  0  0
    4.6085   -1.3230    3.2506 H   0  0  0  0  0  0  0  0  0  0  0  0
    6.8828   -0.7154    2.4007 H   0  0  0  0  0  0  0  0  0  0  0  0
    6.8828   -2.1504    1.3735 H   0  0  0  0  0  0  0  0  0  0  0  0
    6.6460   -3.6043    3.4022 H   0  0  0  0  0  0  0  0  0  0  0  0
    6.6460   -2.1671    4.4310 H   0  0  0  0  0  0  0  0  0  0  0  0
    8.9139   -1.5536    3.5676 H   0  0  0  0  0  0  0  0  0  0  0  0
    8.9139   -2.9848    2.5432 H   0  0  0  0  0  0  0  0  0  0  0  0
    8.7812   -4.4493    4.5677 H   0  0  0  0  0  0  0  0  0  0  0  0
    8.7812   -2.9979    5.6067 H   0  0  0  0  0  0  0  0  0  0  0  0
   12.9867   -3.0765    5.7202 H   0  0  0  0  0  0  0  0  0  0  0  0
   12.9867   -4.5314    4.6786 H   0  0  0  0  0  0  0  0  0  0  0  0
   12.7944   -4.5355    7.7353 H   0  0  0  0  0  0  0  0  0  0  0  0
   14.2416   -4.9398    6.7861 H   0  0  0  0  0  0  0  0  0  0  0  0
   12.7944   -5.9686    6.7094 H   0  0  0  0  0  0  0  0  0  0  0  0
  1  2  1  0  0  0  0
  1 15  1  0  0  0  0
  1 16  1  0  0  0  0
  1 17  1  0  0  0  0
  2  3  1  0  0  0  0
  2 18  1  0  0  0  0
  2 19  1  0  0  0  0
  3  4  1  0  0  0  0
  3 20  1  0  0  0  0
  3 21  1  0  0  0  0
  4  5  1  0  0  0  0
  4 22  1  0  0  0  0
  4 23  1  0  0  0  0
  5  6  1  0  0  0  0
  5 24  1  0  0  0  0
  5 25  1  0  0  0  0
  6  7  1  0  0  0  0
  6 26  1  0  0  0  0
  6 27  1  0  0  0  0
  7  8  1  0  0  0  0
  7 28  1  0  0  0  0
  7 29  1  0  0  0  0
  8  9  1  0  0  0  0
  8 30  1  0  0  0  0
  8 31  1  0  0  0  0
  9 10  1  0  0  0  0
  9 32  1  0  0  0  0
  9 33  1  0  0  0  0
 10 11  2  0  0  0  0
 10 12  1  0  0  0  0
 12 13  1  0  0  0  0
 13 14  1  0  0  0  0
 13 34  1  0  0  0  0
 13 35  1  0  0  0  0
 14 36  1  0  0  0  0
 14 37  1  0  0  0  0
 14 38  1  0  0  0  0
M  END
$$$$
