
 OpenBabel07222214443D

 29 29  0  0  0  0  0  0  0  0999 V2000
    0.9054    0.1320   -0.0159 C   0  0  0  0  0  0  0  0  0  0  0  0
    2.4400    0.1751    0.0185 C   0  0  0  0  0  0  0  0  0  0  0  0
    2.9314    1.5799    0.3782 C   0  0  0  0  0  0  0  0  0  0  0  0
    2.9313   -0.9578    0.9138 C   0  0  0  0  0  0  0  0  0  0  0  0
    2.8315   -2.3344    0.5759 C   0  0  0  0  0  0  0  0  0  0  0  0
    2.9388   -3.3001    1.6166 C   0  0  0  0  0  0  0  0  0  0  0  0
    3.3121   -2.9153    2.9110 C   0  0  0  0  0  0  0  0  0  0  0  0
    3.5161   -1.5785    3.2135 C   0  0  0  0  0  0  0  0  0  0  0  0
    3.3132   -0.6234    2.2331 C   0  0  0  0  0  0  0  0  0  0  0  0
    2.6174   -4.6103    1.3138 O   0  0  0  0  0  0  0  0  0  0  0  0
    2.4783   -5.4965    2.4258 C   0  0  0  0  0  0  0  0  0  0  0  0
    2.5718   -2.8639   -0.6701 O   0  0  0  0  0  0  0  0  0  0  0  0
    2.7677   -2.0849   -1.8433 C   0  0  0  0  0  0  0  0  0  0  0  0
    0.5110    0.8479   -0.7426 H   0  0  0  0  0  0  0  0  0  0  0  0
    0.4808    0.3641    0.9669 H   0  0  0  0  0  0  0  0  0  0  0  0
    0.5262   -0.8588   -0.2954 H   0  0  0  0  0  0  0  0  0  0  0  0
    2.8350    0.0619   -0.9863 H   0  0  0  0  0  0  0  0  0  0  0  0
    2.5477    1.9241    1.3422 H   0  0  0  0  0  0  0  0  0  0  0  0
    2.6035    2.2976   -0.3806 H   0  0  0  0  0  0  0  0  0  0  0  0
    4.0274    1.5999    0.4039 H   0  0  0  0  0  0  0  0  0  0  0  0
    3.4408   -3.6266    3.7161 H   0  0  0  0  0  0  0  0  0  0  0  0
    3.7750   -1.2809    4.2247 H   0  0  0  0  0  0  0  0  0  0  0  0
    3.4168    0.4132    2.5458 H   0  0  0  0  0  0  0  0  0  0  0  0
    2.0660   -6.4455    2.0720 H   0  0  0  0  0  0  0  0  0  0  0  0
    1.7852   -5.1062    3.1831 H   0  0  0  0  0  0  0  0  0  0  0  0
    3.4587   -5.7042    2.8682 H   0  0  0  0  0  0  0  0  0  0  0  0
    2.7867   -2.7355   -2.7220 H   0  0  0  0  0  0  0  0  0  0  0  0
    3.7195   -1.5396   -1.8359 H   0  0  0  0  0  0  0  0  0  0  0  0
    1.9097   -1.4251   -2.0003 H   0  0  0  0  0  0  0  0  0  0  0  0
  1  2  1  0  0  0  0
  1 14  1  0  0  0  0
  1 15  1  0  0  0  0
  1 16  1  0  0  0  0
  2  3  1  0  0  0  0
  2  4  1  0  0  0  0
  2 17  1  0  0  0  0
  3 18  1  0  0  0  0
  3 19  1  0  0  0  0
  3 20  1  0  0  0  0
  4  5  2  0  0  0  0
  4  9  1  0  0  0  0
  5  6  1  0  0  0  0
  5 12  1  0  0  0  0
  6  7  2  0  0  0  0
  6 10  1  0  0  0  0
  7  8  1  0  0  0  0
  7 21  1  0  0  0  0
  8  9  2  0  0  0  0
  8 22  1  0  0  0  0
  9 23  1  0  0  0  0
 10 11  1  0  0  0  0
 11 24  1  0  0  0  0
 11 25  1  0  0  0  0
 11 26  1  0  0  0  0
 12 13  1  0  0  0  0
 13 27  1  0  0  0  0
 13 28  1  0  0  0  0
 13 29  1  0  0  0  0
M  END
$$$$
