
 OpenBabel07222214433D

 23 22  0  0  0  0  0  0  0  0999 V2000
    0.9997    0.0434   -0.0904 C   0  0  0  0  0  0  0  0  0  0  0  0
    2.5268    0.0558   -0.0649 C   0  0  0  0  0  0  0  0  0  0  0  0
    3.0100    1.1687    0.8687 C   0  0  0  0  0  0  0  0  0  0  0  0
    3.0712   -1.3190    0.3632 C   0  0  0  0  0  0  0  0  0  0  0  0
    4.5971   -1.3413    0.3522 C   0  0  0  0  0  0  0  0  0  0  0  0
    5.0852   -2.6304    0.7383 O   0  0  0  0  0  0  0  0  0  0  0  0
    6.4167   -2.8574    0.8542 C   0  0  0  0  0  0  0  0  0  0  0  0
    7.3860   -1.7581    0.5034 C   0  0  0  0  0  0  0  0  0  0  0  0
    6.8307   -3.9536    1.2295 O   0  0  0  0  0  0  0  0  0  0  0  0
    0.6118    1.0146   -0.4169 H   0  0  0  0  0  0  0  0  0  0  0  0
    0.5924   -0.1654    0.9045 H   0  0  0  0  0  0  0  0  0  0  0  0
    0.6235   -0.7179   -0.7809 H   0  0  0  0  0  0  0  0  0  0  0  0
    2.8837    0.2743   -1.0802 H   0  0  0  0  0  0  0  0  0  0  0  0
    2.6887    0.9762    1.8980 H   0  0  0  0  0  0  0  0  0  0  0  0
    2.6158    2.1405    0.5583 H   0  0  0  0  0  0  0  0  0  0  0  0
    4.0999    1.2590    0.8655 H   0  0  0  0  0  0  0  0  0  0  0  0
    2.6922   -2.1018   -0.3069 H   0  0  0  0  0  0  0  0  0  0  0  0
    2.7045   -1.5825    1.3635 H   0  0  0  0  0  0  0  0  0  0  0  0
    4.9808   -0.6133    1.0710 H   0  0  0  0  0  0  0  0  0  0  0  0
    4.9495   -1.1129   -0.6593 H   0  0  0  0  0  0  0  0  0  0  0  0
    6.9291   -0.8186    0.1969 H   0  0  0  0  0  0  0  0  0  0  0  0
    8.0131   -2.0956   -0.3263 H   0  0  0  0  0  0  0  0  0  0  0  0
    8.0075   -1.5421    1.3770 H   0  0  0  0  0  0  0  0  0  0  0  0
  1  2  1  0  0  0  0
  1 10  1  0  0  0  0
  1 11  1  0  0  0  0
  1 12  1  0  0  0  0
  2  3  1  0  0  0  0
  2  4  1  0  0  0  0
  2 13  1  0  0  0  0
  3 14  1  0  0  0  0
  3 15  1  0  0  0  0
  3 16  1  0  0  0  0
  4  5  1  0  0  0  0
  4 17  1  0  0  0  0
  4 18  1  0  0  0  0
  5  6  1  0  0  0  0
  5 19  1  0  0  0  0
  5 20  1  0  0  0  0
  6  7  1  0  0  0  0
  7  8  1  0  0  0  0
  7  9  2  0  0  0  0
  8 21  1  0  0  0  0
  8 22  1  0  0  0  0
  8 23  1  0  0  0  0
M  END
$$$$
