
 OpenBabel07122215493D

 24 23  0  0  0  0  0  0  0  0999 V2000
    1.0402    0.0094    0.0900 C   0  0  0  0  0  0  0  0  0  0  0  0
    2.5586    0.0140    0.0798 C   0  0  0  0  0  0  0  0  0  0  0  0
    3.0909    0.6064   -1.2208 C   0  0  0  0  0  0  0  0  0  0  0  0
    4.6162    0.6130   -1.2355 C   0  0  0  0  0  0  0  0  0  0  0  0
    5.1386    1.2070   -2.5396 C   0  0  0  0  0  0  0  0  0  0  0  0
    6.6620    1.2187   -2.5633 C   0  0  0  0  0  0  0  0  0  0  0  0
    7.1818    1.8130   -3.8632 C   0  0  0  0  0  0  0  0  0  0  0  0
    8.6023    1.8050   -3.8609 O   0  0  0  0  0  0  0  0  0  0  0  0
    0.6680   -0.4169    1.0259 H   0  0  0  0  0  0  0  0  0  0  0  0
    0.6474   -0.5877   -0.7391 H   0  0  0  0  0  0  0  0  0  0  0  0
    0.6474    1.0269   -0.0037 H   0  0  0  0  0  0  0  0  0  0  0  0
    2.9269   -1.0113    0.2013 H   0  0  0  0  0  0  0  0  0  0  0  0
    2.9269    0.5954    0.9331 H   0  0  0  0  0  0  0  0  0  0  0  0
    2.7170    1.6307   -1.3409 H   0  0  0  0  0  0  0  0  0  0  0  0
    2.7169    0.0248   -2.0725 H   0  0  0  0  0  0  0  0  0  0  0  0
    4.9921   -0.4107   -1.1181 H   0  0  0  0  0  0  0  0  0  0  0  0
    4.9921    1.1963   -0.3861 H   0  0  0  0  0  0  0  0  0  0  0  0
    4.7596    2.2298   -2.6563 H   0  0  0  0  0  0  0  0  0  0  0  0
    4.7602    0.6236   -3.3880 H   0  0  0  0  0  0  0  0  0  0  0  0
    7.0536    0.2010   -2.4425 H   0  0  0  0  0  0  0  0  0  0  0  0
    7.0503    1.7933   -1.7132 H   0  0  0  0  0  0  0  0  0  0  0  0
    6.8390    2.8448   -3.9919 H   0  0  0  0  0  0  0  0  0  0  0  0
    6.8387    1.2277   -4.7216 H   0  0  0  0  0  0  0  0  0  0  0  0
    8.8950    2.3328   -3.1004 H   0  0  0  0  0  0  0  0  0  0  0  0
  1  2  1  0  0  0  0
  1  9  1  0  0  0  0
  1 10  1  0  0  0  0
  1 11  1  0  0  0  0
  2  3  1  0  0  0  0
  2 12  1  0  0  0  0
  2 13  1  0  0  0  0
  3  4  1  0  0  0  0
  3 14  1  0  0  0  0
  3 15  1  0  0  0  0
  4  5  1  0  0  0  0
  4 16  1  0  0  0  0
  4 17  1  0  0  0  0
  5  6  1  0  0  0  0
  5 18  1  0  0  0  0
  5 19  1  0  0  0  0
  6  7  1  0  0  0  0
  6 20  1  0  0  0  0
  6 21  1  0  0  0  0
  7  8  1  0  0  0  0
  7 22  1  0  0  0  0
  7 23  1  0  0  0  0
  8 24  1  0  0  0  0
M  END
$$$$
