
 OpenBabel07122215493D

 31 31  0  0  1  0  0  0  0  0999 V2000
    0.8840   -0.2111    0.0613 C   0  0  0  0  0  0  0  0  0  0  0  0
    2.4076   -0.0845    0.0359 C   0  0  0  0  0  0  0  0  0  0  0  0
    2.9707   -1.1454   -0.9198 C   0  0  0  0  0  0  0  0  0  0  0  0
    2.9428    1.3351   -0.3411 C   0  0  2  0  0  0  0  0  0  0  0  0
    4.3593    1.5147    0.2553 C   0  0  0  0  0  0  0  0  0  0  0  0
    4.9538    2.8966   -0.0062 C   0  0  0  0  0  0  0  0  0  0  0  0
    4.0203    4.0119    0.4700 C   0  0  1  0  0  0  0  0  0  0  0  0
    4.5988    5.3864    0.1529 C   0  0  0  0  0  0  0  0  0  0  0  0
    2.6478    3.8640   -0.1755 C   0  0  0  0  0  0  0  0  0  0  0  0
    2.0318    2.5003    0.1101 C   0  0  1  0  0  0  0  0  0  0  0  0
    0.7763    2.4863   -0.5697 O   0  0  0  0  0  0  0  0  0  0  0  0
    0.5778   -1.2239    0.3390 H   0  0  0  0  0  0  0  0  0  0  0  0
    0.4524    0.0122   -0.9197 H   0  0  0  0  0  0  0  0  0  0  0  0
    0.4455    0.4588    0.8081 H   0  0  0  0  0  0  0  0  0  0  0  0
    2.7584   -0.3306    1.0471 H   0  0  0  0  0  0  0  0  0  0  0  0
    2.6355   -0.9630   -1.9471 H   0  0  0  0  0  0  0  0  0  0  0  0
    2.6313   -2.1459   -0.6305 H   0  0  0  0  0  0  0  0  0  0  0  0
    4.0643   -1.1556   -0.9177 H   0  0  0  0  0  0  0  0  0  0  0  0
    3.0220    1.3840   -1.4370 H   0  0  0  0  0  0  0  0  0  0  0  0
    5.0438    0.7578   -0.1442 H   0  0  0  0  0  0  0  0  0  0  0  0
    4.3177    1.3559    1.3410 H   0  0  0  0  0  0  0  0  0  0  0  0
    5.1603    3.0051   -1.0781 H   0  0  0  0  0  0  0  0  0  0  0  0
    5.9170    2.9754    0.5128 H   0  0  0  0  0  0  0  0  0  0  0  0
    3.9045    3.9318    1.5590 H   0  0  0  0  0  0  0  0  0  0  0  0
    4.7367    5.5188   -0.9256 H   0  0  0  0  0  0  0  0  0  0  0  0
    5.5679    5.5218    0.6421 H   0  0  0  0  0  0  0  0  0  0  0  0
    3.9276    6.1764    0.5066 H   0  0  0  0  0  0  0  0  0  0  0  0
    2.7155    4.0148   -1.2618 H   0  0  0  0  0  0  0  0  0  0  0  0
    1.9674    4.6453    0.1870 H   0  0  0  0  0  0  0  0  0  0  0  0
    1.8312    2.4113    1.1839 H   0  0  0  0  0  0  0  0  0  0  0  0
    0.9468    2.3873   -1.5184 H   0  0  0  0  0  0  0  0  0  0  0  0
  1  2  1  0  0  0  0
  1 12  1  0  0  0  0
  1 13  1  0  0  0  0
  1 14  1  0  0  0  0
  2  3  1  0  0  0  0
  2  4  1  0  0  0  0
  2 15  1  0  0  0  0
  3 16  1  0  0  0  0
  3 17  1  0  0  0  0
  3 18  1  0  0  0  0
  4  5  1  0  0  0  0
  4 10  1  0  0  0  0
  4 19  1  6  0  0  0
  5  6  1  0  0  0  0
  5 20  1  0  0  0  0
  5 21  1  0  0  0  0
  6  7  1  0  0  0  0
  6 22  1  0  0  0  0
  6 23  1  0  0  0  0
  7  8  1  0  0  0  0
  7  9  1  0  0  0  0
  7 24  1  1  0  0  0
  8 25  1  0  0  0  0
  8 26  1  0  0  0  0
  8 27  1  0  0  0  0
  9 10  1  0  0  0  0
  9 28  1  0  0  0  0
  9 29  1  0  0  0  0
 10 11  1  0  0  0  0
 10 30  1  1  0  0  0
 11 31  1  0  0  0  0
M  END
$$$$
