
 OpenBabel07122215493D

 19 19  0  0  0  0  0  0  0  0999 V2000
    0.8176   -0.0152    0.0084 S   0  0  0  0  0  0  0  0  0  0  0  0
    2.6294   -0.0884   -0.0142 C   0  0  0  0  0  0  0  0  0  0  0  0
    3.2523    1.2391   -0.4533 C   0  0  0  0  0  0  0  0  0  0  0  0
    4.7684    1.2514   -0.4131 C   0  0  0  0  0  0  0  0  0  0  0  0
    5.5321    0.0733   -0.3912 C   0  0  0  0  0  0  0  0  0  0  0  0
    6.9165    0.1237   -0.2311 C   0  0  0  0  0  0  0  0  0  0  0  0
    7.5663    1.3488   -0.1697 C   0  0  0  0  0  0  0  0  0  0  0  0
    6.8318    2.5306   -0.2607 C   0  0  0  0  0  0  0  0  0  0  0  0
    5.4401    2.4809   -0.3781 C   0  0  0  0  0  0  0  0  0  0  0  0
    0.6307   -1.2938    0.3707 H   0  0  0  0  0  0  0  0  0  0  0  0
    2.9106   -0.8959   -0.6976 H   0  0  0  0  0  0  0  0  0  0  0  0
    2.9769   -0.3615    0.9891 H   0  0  0  0  0  0  0  0  0  0  0  0
    2.8968    2.0293    0.2230 H   0  0  0  0  0  0  0  0  0  0  0  0
    2.9262    1.4987   -1.4681 H   0  0  0  0  0  0  0  0  0  0  0  0
    5.0718   -0.9049   -0.4752 H   0  0  0  0  0  0  0  0  0  0  0  0
    7.4795   -0.8027   -0.1437 H   0  0  0  0  0  0  0  0  0  0  0  0
    8.6461    1.3844   -0.0542 H   0  0  0  0  0  0  0  0  0  0  0  0
    7.3405    3.4886   -0.2209 H   0  0  0  0  0  0  0  0  0  0  0  0
    4.8817    3.4151   -0.4233 H   0  0  0  0  0  0  0  0  0  0  0  0
  1  2  1  0  0  0  0
  1 10  1  0  0  0  0
  2  3  1  0  0  0  0
  2 11  1  0  0  0  0
  2 12  1  0  0  0  0
  3  4  1  0  0  0  0
  3 13  1  0  0  0  0
  3 14  1  0  0  0  0
  4  5  1  0  0  0  0
  4  9  2  0  0  0  0
  5  6  2  0  0  0  0
  5 15  1  0  0  0  0
  6  7  1  0  0  0  0
  6 16  1  0  0  0  0
  7  8  2  0  0  0  0
  7 17  1  0  0  0  0
  8  9  1  0  0  0  0
  8 18  1  0  0  0  0
  9 19  1  0  0  0  0
M  END
$$$$
