
 OpenBabel07122215493D

 19 19  0  0  0  0  0  0  0  0999 V2000
    1.1086   -0.0975    0.0147 C   0  0  0  0  0  0  0  0  0  0  0  0
    2.5324   -0.0812    0.0283 O   0  0  0  0  0  0  0  0  0  0  0  0
    3.1412    1.1488    0.0250 C   0  0  0  0  0  0  0  0  0  0  0  0
    4.5451    1.0834    0.0088 C   0  0  0  0  0  0  0  0  0  0  0  0
    5.3047    2.2573   -0.0128 C   0  0  0  0  0  0  0  0  0  0  0  0
    6.7811    2.1902   -0.0334 C   0  0  0  0  0  0  0  0  0  0  0  0
    7.4739    3.2042   -0.0555 O   0  0  0  0  0  0  0  0  0  0  0  0
    4.6713    3.5016   -0.0158 C   0  0  0  0  0  0  0  0  0  0  0  0
    3.2788    3.5759    0.0126 C   0  0  0  0  0  0  0  0  0  0  0  0
    2.5167    2.4064    0.0354 C   0  0  0  0  0  0  0  0  0  0  0  0
    1.1544    2.5234    0.0699 O   0  0  0  0  0  0  0  0  0  0  0  0
    0.7744   -1.1381    0.0034 H   0  0  0  0  0  0  0  0  0  0  0  0
    0.7167    0.3742   -0.8937 H   0  0  0  0  0  0  0  0  0  0  0  0
    0.7034    0.3569    0.9254 H   0  0  0  0  0  0  0  0  0  0  0  0
    5.0303    0.1097    0.0120 H   0  0  0  0  0  0  0  0  0  0  0  0
    7.2404    1.1888   -0.0277 H   0  0  0  0  0  0  0  0  0  0  0  0
    5.2612    4.4156   -0.0384 H   0  0  0  0  0  0  0  0  0  0  0  0
    2.8051    4.5528    0.0154 H   0  0  0  0  0  0  0  0  0  0  0  0
    0.8910    3.4563    0.0951 H   0  0  0  0  0  0  0  0  0  0  0  0
  1  2  1  0  0  0  0
  1 12  1  0  0  0  0
  1 13  1  0  0  0  0
  1 14  1  0  0  0  0
  2  3  1  0  0  0  0
  3  4  1  0  0  0  0
  3 10  2  0  0  0  0
  4  5  2  0  0  0  0
  4 15  1  0  0  0  0
  5  6  1  0  0  0  0
  5  8  1  0  0  0  0
  6  7  2  0  0  0  0
  6 16  1  0  0  0  0
  8  9  2  0  0  0  0
  8 17  1  0  0  0  0
  9 10  1  0  0  0  0
  9 18  1  0  0  0  0
 10 11  1  0  0  0  0
 11 19  1  0  0  0  0
M  END
$$$$
