
 OpenBabel07122215493D

 27 26  0  0  0  0  0  0  0  0999 V2000
    1.0131    0.1051    0.1384 C   0  0  0  0  0  0  0  0  0  0  0  0
    2.5373    0.0785    0.2269 C   0  0  0  0  0  0  0  0  0  0  0  0
    3.0669   -0.6686   -0.9845 C   0  0  0  0  0  0  0  0  0  0  0  0
    4.5777   -0.6626   -1.1614 C   0  0  0  0  0  0  0  0  0  0  0  0
    5.0474   -1.3896   -2.4470 C   0  0  0  0  0  0  0  0  0  0  0  0
    4.5654   -0.7489   -3.7786 C   0  0  0  0  0  0  0  0  0  0  0  0
    3.0706   -0.7907   -4.0812 C   0  0  0  0  0  0  0  0  0  0  0  0
    6.5928   -1.4350   -2.4330 C   0  0  0  0  0  0  0  0  0  0  0  0
    7.1101   -2.1548   -3.5428 O   0  0  0  0  0  0  0  0  0  0  0  0
    0.5818    0.6587    0.9744 H   0  0  0  0  0  0  0  0  0  0  0  0
    0.6055   -0.9116    0.1390 H   0  0  0  0  0  0  0  0  0  0  0  0
    0.6854    0.5886   -0.7911 H   0  0  0  0  0  0  0  0  0  0  0  0
    2.8668   -0.3903    1.1576 H   0  0  0  0  0  0  0  0  0  0  0  0
    2.9112    1.1092    0.2108 H   0  0  0  0  0  0  0  0  0  0  0  0
    2.6277   -0.1240   -1.8048 H   0  0  0  0  0  0  0  0  0  0  0  0
    2.6817   -1.6944   -1.0166 H   0  0  0  0  0  0  0  0  0  0  0  0
    5.0339   -1.1445   -0.2864 H   0  0  0  0  0  0  0  0  0  0  0  0
    4.9427    0.3716   -1.1773 H   0  0  0  0  0  0  0  0  0  0  0  0
    4.6850   -2.4268   -2.4245 H   0  0  0  0  0  0  0  0  0  0  0  0
    5.0487   -1.2767   -4.6092 H   0  0  0  0  0  0  0  0  0  0  0  0
    4.9096    0.2907   -3.8266 H   0  0  0  0  0  0  0  0  0  0  0  0
    2.6284   -1.7535   -3.8069 H   0  0  0  0  0  0  0  0  0  0  0  0
    2.8905   -0.6138   -5.1446 H   0  0  0  0  0  0  0  0  0  0  0  0
    2.5236    0.0183   -3.5960 H   0  0  0  0  0  0  0  0  0  0  0  0
    6.9674   -1.9129   -1.5213 H   0  0  0  0  0  0  0  0  0  0  0  0
    7.0093   -0.4215   -2.4729 H   0  0  0  0  0  0  0  0  0  0  0  0
    6.7332   -3.0562   -3.5112 H   0  0  0  0  0  0  0  0  0  0  0  0
  1  2  1  0  0  0  0
  1 10  1  0  0  0  0
  1 11  1  0  0  0  0
  1 12  1  0  0  0  0
  2  3  1  0  0  0  0
  2 13  1  0  0  0  0
  2 14  1  0  0  0  0
  3  4  1  0  0  0  0
  3 15  1  0  0  0  0
  3 16  1  0  0  0  0
  4  5  1  0  0  0  0
  4 17  1  0  0  0  0
  4 18  1  0  0  0  0
  5  6  1  0  0  0  0
  5  8  1  0  0  0  0
  5 19  1  0  0  0  0
  6  7  1  0  0  0  0
  6 20  1  0  0  0  0
  6 21  1  0  0  0  0
  7 22  1  0  0  0  0
  7 23  1  0  0  0  0
  7 24  1  0  0  0  0
  8  9  1  0  0  0  0
  8 25  1  0  0  0  0
  8 26  1  0  0  0  0
  9 27  1  0  0  0  0
M  END
$$$$
