
 OpenBabel07122215493D

 28 27  0  0  0  0  0  0  0  0999 V2000
    1.0393    0.0028    0.0680 C   0  0  0  0  0  0  0  0  0  0  0  0
    2.5640    0.0051    0.1855 C   0  0  0  0  0  0  0  0  0  0  0  0
    3.1063   -1.0008   -0.8088 C   0  0  0  0  0  0  0  0  0  0  0  0
    4.6125   -1.0354   -1.0075 C   0  0  0  0  0  0  0  0  0  0  0  0
    5.0600   -2.0580   -2.0839 C   0  0  0  0  0  0  0  0  0  0  0  0
    4.5970   -1.7859   -3.5586 C   0  0  0  0  0  0  0  0  0  0  0  0
    5.1871   -2.8192   -4.5391 C   0  0  0  0  0  0  0  0  0  0  0  0
    3.0690   -1.8209   -3.7900 C   0  0  0  0  0  0  0  0  0  0  0  0
    2.7414   -1.6137   -5.1625 O   0  0  0  0  0  0  0  0  0  0  0  0
    6.9089   -2.1239   -1.9539 S   0  0  0  0  0  0  0  0  0  0  0  0
    0.5953    0.7390    0.7397 H   0  0  0  0  0  0  0  0  0  0  0  0
    0.6313   -0.9864    0.3025 H   0  0  0  0  0  0  0  0  0  0  0  0
    0.7230    0.2490   -0.9551 H   0  0  0  0  0  0  0  0  0  0  0  0
    2.8852   -0.2274    1.2022 H   0  0  0  0  0  0  0  0  0  0  0  0
    2.9345    1.0030   -0.0786 H   0  0  0  0  0  0  0  0  0  0  0  0
    2.6727   -0.6212   -1.7113 H   0  0  0  0  0  0  0  0  0  0  0  0
    2.7120   -2.0079   -0.6298 H   0  0  0  0  0  0  0  0  0  0  0  0
    5.0677   -1.2879   -0.0397 H   0  0  0  0  0  0  0  0  0  0  0  0
    4.9667   -0.0331   -1.2786 H   0  0  0  0  0  0  0  0  0  0  0  0
    4.7179   -3.0564   -1.7857 H   0  0  0  0  0  0  0  0  0  0  0  0
    4.9593   -0.7945   -3.8612 H   0  0  0  0  0  0  0  0  0  0  0  0
    4.8461   -3.8274   -4.2779 H   0  0  0  0  0  0  0  0  0  0  0  0
    6.2777   -2.8123   -4.5593 H   0  0  0  0  0  0  0  0  0  0  0  0
    4.8644   -2.6146   -5.5654 H   0  0  0  0  0  0  0  0  0  0  0  0
    2.5339   -1.0058   -3.3309 H   0  0  0  0  0  0  0  0  0  0  0  0
    2.6349   -2.7637   -3.4445 H   0  0  0  0  0  0  0  0  0  0  0  0
    2.8701   -0.6692   -5.3281 H   0  0  0  0  0  0  0  0  0  0  0  0
    7.1599   -0.8893   -2.4160 H   0  0  0  0  0  0  0  0  0  0  0  0
  1  2  1  0  0  0  0
  1 11  1  0  0  0  0
  1 12  1  0  0  0  0
  1 13  1  0  0  0  0
  2  3  1  0  0  0  0
  2 14  1  0  0  0  0
  2 15  1  0  0  0  0
  3  4  1  0  0  0  0
  3 16  1  0  0  0  0
  3 17  1  0  0  0  0
  4  5  1  0  0  0  0
  4 18  1  0  0  0  0
  4 19  1  0  0  0  0
  5  6  1  0  0  0  0
  5 10  1  0  0  0  0
  5 20  1  0  0  0  0
  6  7  1  0  0  0  0
  6  8  1  0  0  0  0
  6 21  1  0  0  0  0
  7 22  1  0  0  0  0
  7 23  1  0  0  0  0
  7 24  1  0  0  0  0
  8  9  1  0  0  0  0
  8 25  1  0  0  0  0
  8 26  1  0  0  0  0
  9 27  1  0  0  0  0
 10 28  1  0  0  0  0
M  END
$$$$
