
 OpenBabel07122215493D

 24 24  0  0  0  0  0  0  0  0999 V2000
    0.9251   -0.1277    0.0519 C   0  0  0  0  0  0  0  0  0  0  0  0
    2.3483   -0.1047    0.0668 O   0  0  0  0  0  0  0  0  0  0  0  0
    2.9368    1.1358    0.0632 C   0  0  0  0  0  0  0  0  0  0  0  0
    4.3466    1.1043    0.0456 C   0  0  0  0  0  0  0  0  0  0  0  0
    5.1076    2.2898    0.0237 C   0  0  0  0  0  0  0  0  0  0  0  0
    6.6298    2.2165    0.0027 C   0  0  0  0  0  0  0  0  0  0  0  0
    7.3570    3.5400   -0.0236 C   0  0  0  0  0  0  0  0  0  0  0  0
    8.6884    3.6991   -0.0452 C   0  0  0  0  0  0  0  0  0  0  0  0
    4.4067    3.5029    0.0217 C   0  0  0  0  0  0  0  0  0  0  0  0
    3.0192    3.5513    0.0511 C   0  0  0  0  0  0  0  0  0  0  0  0
    2.2848    2.3760    0.0742 C   0  0  0  0  0  0  0  0  0  0  0  0
    0.9230    2.4913    0.1087 O   0  0  0  0  0  0  0  0  0  0  0  0
    0.5940   -1.1687    0.0395 H   0  0  0  0  0  0  0  0  0  0  0  0
    0.5330    0.3443   -0.8566 H   0  0  0  0  0  0  0  0  0  0  0  0
    0.5181    0.3255    0.9627 H   0  0  0  0  0  0  0  0  0  0  0  0
    4.8468    0.1354    0.0478 H   0  0  0  0  0  0  0  0  0  0  0  0
    6.9289    1.6387   -0.8821 H   0  0  0  0  0  0  0  0  0  0  0  0
    6.9540    1.6605    0.8927 H   0  0  0  0  0  0  0  0  0  0  0  0
    6.8008    4.4663   -0.0260 H   0  0  0  0  0  0  0  0  0  0  0  0
    9.3693    2.8602   -0.0452 H   0  0  0  0  0  0  0  0  0  0  0  0
    9.0988    4.7048   -0.0633 H   0  0  0  0  0  0  0  0  0  0  0  0
    4.9032    4.4632   -0.0014 H   0  0  0  0  0  0  0  0  0  0  0  0
    2.5396    4.5242    0.0537 H   0  0  0  0  0  0  0  0  0  0  0  0
    0.6779    3.4296    0.1332 H   0  0  0  0  0  0  0  0  0  0  0  0
  1  2  1  0  0  0  0
  1 13  1  0  0  0  0
  1 14  1  0  0  0  0
  1 15  1  0  0  0  0
  2  3  1  0  0  0  0
  3  4  1  0  0  0  0
  3 11  2  0  0  0  0
  4  5  2  0  0  0  0
  4 16  1  0  0  0  0
  5  6  1  0  0  0  0
  5  9  1  0  0  0  0
  6  7  1  0  0  0  0
  6 17  1  0  0  0  0
  6 18  1  0  0  0  0
  7  8  2  0  0  0  0
  7 19  1  0  0  0  0
  8 20  1  0  0  0  0
  8 21  1  0  0  0  0
  9 10  2  0  0  0  0
  9 22  1  0  0  0  0
 10 11  1  0  0  0  0
 10 23  1  0  0  0  0
 11 12  1  0  0  0  0
 12 24  1  0  0  0  0
M  END
$$$$
