
 OpenBabel07122215493D

 20 19  0  0  0  0  0  0  0  0999 V2000
    1.0458   -0.1009   -0.0422 C   0  0  0  0  0  0  0  0  0  0  0  0
    2.5661   -0.1373   -0.0400 C   0  0  0  0  0  0  0  0  0  0  0  0
    3.0795    0.9913   -0.9097 C   0  0  0  0  0  0  0  0  0  0  0  0
    4.5970    1.0911   -0.9457 C   0  0  0  0  0  0  0  0  0  0  0  0
    5.0584    2.2457   -1.8356 C   0  0  0  0  0  0  0  0  0  0  0  0
    4.6765    3.6403   -1.3347 C   0  0  0  0  0  0  0  0  0  0  0  0
    5.4586    4.4939   -0.9293 O   0  0  0  0  0  0  0  0  0  0  0  0
    3.3533    3.9340   -1.3892 O   0  0  0  0  0  0  0  0  0  0  0  0
    7.0296    2.1468   -1.9239 Br  0  0  0  0  0  0  0  0  0  0  0  0
    0.6453   -0.8873    0.5996 H   0  0  0  0  0  0  0  0  0  0  0  0
    0.6565   -0.2395   -1.0565 H   0  0  0  0  0  0  0  0  0  0  0  0
    0.6778    0.8645    0.3259 H   0  0  0  0  0  0  0  0  0  0  0  0
    2.9302   -1.1024   -0.4035 H   0  0  0  0  0  0  0  0  0  0  0  0
    2.9324    0.0035    0.9832 H   0  0  0  0  0  0  0  0  0  0  0  0
    2.6693    1.8972   -0.4621 H   0  0  0  0  0  0  0  0  0  0  0  0
    2.6904    0.9011   -1.9322 H   0  0  0  0  0  0  0  0  0  0  0  0
    5.0053    0.1405   -1.3176 H   0  0  0  0  0  0  0  0  0  0  0  0
    4.9789    1.2176    0.0750 H   0  0  0  0  0  0  0  0  0  0  0  0
    4.7403    2.1204   -2.8756 H   0  0  0  0  0  0  0  0  0  0  0  0
    2.7473    3.2667   -1.7595 H   0  0  0  0  0  0  0  0  0  0  0  0
  1  2  1  0  0  0  0
  1 10  1  0  0  0  0
  1 11  1  0  0  0  0
  1 12  1  0  0  0  0
  2  3  1  0  0  0  0
  2 13  1  0  0  0  0
  2 14  1  0  0  0  0
  3  4  1  0  0  0  0
  3 15  1  0  0  0  0
  3 16  1  0  0  0  0
  4  5  1  0  0  0  0
  4 17  1  0  0  0  0
  4 18  1  0  0  0  0
  5  6  1  0  0  0  0
  5  9  1  0  0  0  0
  5 19  1  0  0  0  0
  6  7  2  0  0  0  0
  6  8  1  0  0  0  0
  8 20  1  0  0  0  0
M  END
$$$$
