
 OpenBabel07122215493D

 24 23  0  0  0  0  0  0  0  0999 V2000
    1.0468    0.0005   -0.0472 C   0  0  0  0  0  0  0  0  0  0  0  0
    2.5650    0.0312   -0.0230 C   0  0  0  0  0  0  0  0  0  0  0  0
    3.1146   -1.0719   -0.8934 C   0  0  0  0  0  0  0  0  0  0  0  0
    4.6480   -1.1007   -0.9161 C   0  0  0  0  0  0  0  0  0  0  0  0
    5.0353   -2.2420   -1.8169 C   0  0  0  0  0  0  0  0  0  0  0  0
    4.1287   -2.8976   -2.3342 O   0  0  0  0  0  0  0  0  0  0  0  0
    6.4871   -2.5395   -2.0516 C   0  0  0  0  0  0  0  0  0  0  0  0
    6.8358   -3.6983   -2.9661 C   0  0  0  0  0  0  0  0  0  0  0  0
    5.8039   -4.5673   -3.6518 C   0  0  0  0  0  0  0  0  0  0  0  0
    8.0330   -3.9498   -3.1645 O   0  0  0  0  0  0  0  0  0  0  0  0
    0.6476    0.7983    0.5824 H   0  0  0  0  0  0  0  0  0  0  0  0
    0.6679   -0.9579    0.3247 H   0  0  0  0  0  0  0  0  0  0  0  0
    0.6679    0.1394   -1.0658 H   0  0  0  0  0  0  0  0  0  0  0  0
    2.9245   -0.1016    1.0020 H   0  0  0  0  0  0  0  0  0  0  0  0
    2.9245    0.9971   -0.3904 H   0  0  0  0  0  0  0  0  0  0  0  0
    2.7325   -0.9513   -1.9185 H   0  0  0  0  0  0  0  0  0  0  0  0
    2.7325   -2.0409   -0.5379 H   0  0  0  0  0  0  0  0  0  0  0  0
    5.0468   -1.2762    0.0876 H   0  0  0  0  0  0  0  0  0  0  0  0
    5.0468   -0.1653   -1.3202 H   0  0  0  0  0  0  0  0  0  0  0  0
    6.9549   -2.7414   -1.0792 H   0  0  0  0  0  0  0  0  0  0  0  0
    6.9549   -1.6407   -2.4741 H   0  0  0  0  0  0  0  0  0  0  0  0
    4.7629   -4.3468   -3.4778 H   0  0  0  0  0  0  0  0  0  0  0  0
    5.9314   -5.5977   -3.3155 H   0  0  0  0  0  0  0  0  0  0  0  0
    5.9314   -4.4797   -4.7323 H   0  0  0  0  0  0  0  0  0  0  0  0
  1  2  1  0  0  0  0
  1 11  1  0  0  0  0
  1 12  1  0  0  0  0
  1 13  1  0  0  0  0
  2  3  1  0  0  0  0
  2 14  1  0  0  0  0
  2 15  1  0  0  0  0
  3  4  1  0  0  0  0
  3 16  1  0  0  0  0
  3 17  1  0  0  0  0
  4  5  1  0  0  0  0
  4 18  1  0  0  0  0
  4 19  1  0  0  0  0
  5  6  2  0  0  0  0
  5  7  1  0  0  0  0
  7  8  1  0  0  0  0
  7 20  1  0  0  0  0
  7 21  1  0  0  0  0
  8  9  1  0  0  0  0
  8 10  2  0  0  0  0
  9 22  1  0  0  0  0
  9 23  1  0  0  0  0
  9 24  1  0  0  0  0
M  END
$$$$
