
 OpenBabel07122215493D

 16 15  0  0  0  0  0  0  0  0999 V2000
    0.9092    0.0564    0.0292 C   0  0  0  0  0  0  0  0  0  0  0  0
    2.4263    0.0574    0.0333 C   0  0  0  0  0  0  0  0  0  0  0  0
    2.9900    0.4046    1.4086 C   0  0  0  0  0  0  0  0  0  0  0  0
    4.5077    0.4014    1.3959 C   0  0  0  0  0  0  0  0  0  0  0  0
    5.1613    0.1457    0.3830 O   0  0  0  0  0  0  0  0  0  0  0  0
    5.2107    0.7269    2.6852 C   0  0  0  0  0  0  0  0  0  0  0  0
    0.5357   -0.1955   -0.9683 H   0  0  0  0  0  0  0  0  0  0  0  0
    0.5176    1.0411    0.3019 H   0  0  0  0  0  0  0  0  0  0  0  0
    0.5176   -0.6809    0.7367 H   0  0  0  0  0  0  0  0  0  0  0  0
    2.7897    0.7778   -0.7097 H   0  0  0  0  0  0  0  0  0  0  0  0
    2.7897   -0.9294   -0.2788 H   0  0  0  0  0  0  0  0  0  0  0  0
    2.6480   -0.3260    2.1504 H   0  0  0  0  0  0  0  0  0  0  0  0
    2.6480    1.3998    1.7147 H   0  0  0  0  0  0  0  0  0  0  0  0
    4.4916    0.9283    3.4829 H   0  0  0  0  0  0  0  0  0  0  0  0
    5.8320    1.6139    2.5372 H   0  0  0  0  0  0  0  0  0  0  0  0
    5.8320   -0.1241    2.9760 H   0  0  0  0  0  0  0  0  0  0  0  0
  1  2  1  0  0  0  0
  1  7  1  0  0  0  0
  1  8  1  0  0  0  0
  1  9  1  0  0  0  0
  2  3  1  0  0  0  0
  2 10  1  0  0  0  0
  2 11  1  0  0  0  0
  3  4  1  0  0  0  0
  3 12  1  0  0  0  0
  3 13  1  0  0  0  0
  4  5  2  0  0  0  0
  4  6  1  0  0  0  0
  6 14  1  0  0  0  0
  6 15  1  0  0  0  0
  6 16  1  0  0  0  0
M  END
$$$$
