
 OpenBabel07122215493D

 29 28  0  0  0  0  0  0  0  0999 V2000
    0.9527   -0.0373   -0.0862 C   0  0  0  0  0  0  0  0  0  0  0  0
    2.4730   -0.0426   -0.0755 C   0  0  0  0  0  0  0  0  0  0  0  0
    3.0111   -0.6745    1.2078 C   0  0  0  0  0  0  0  0  0  0  0  0
    4.5415   -0.6855    1.2303 C   0  0  0  0  0  0  0  0  0  0  0  0
    5.0756   -1.3177    2.5141 C   0  0  0  0  0  0  0  0  0  0  0  0
    6.5163   -1.3138    2.5062 O   0  0  0  0  0  0  0  0  0  0  0  0
    7.0621   -1.8673    3.6303 C   0  0  0  0  0  0  0  0  0  0  0  0
    6.4068   -2.3250    4.5598 O   0  0  0  0  0  0  0  0  0  0  0  0
    8.5780   -1.8443    3.5835 C   0  0  0  0  0  0  0  0  0  0  0  0
    9.1624   -2.4705    4.8552 C   0  0  0  0  0  0  0  0  0  0  0  0
   10.6814   -2.4746    4.8636 C   0  0  0  0  0  0  0  0  0  0  0  0
    0.5787    0.4170   -1.0088 H   0  0  0  0  0  0  0  0  0  0  0  0
    0.5587    0.5349    0.7599 H   0  0  0  0  0  0  0  0  0  0  0  0
    0.5587   -1.0568   -0.0239 H   0  0  0  0  0  0  0  0  0  0  0  0
    2.8385    0.9868   -0.1673 H   0  0  0  0  0  0  0  0  0  0  0  0
    2.8385   -0.5974   -0.9474 H   0  0  0  0  0  0  0  0  0  0  0  0
    2.6317   -1.7003    1.2950 H   0  0  0  0  0  0  0  0  0  0  0  0
    2.6317   -0.1181    2.0741 H   0  0  0  0  0  0  0  0  0  0  0  0
    4.9255    0.3374    1.1375 H   0  0  0  0  0  0  0  0  0  0  0  0
    4.9255   -1.2357    0.3628 H   0  0  0  0  0  0  0  0  0  0  0  0
    4.7163   -2.3515    2.5883 H   0  0  0  0  0  0  0  0  0  0  0  0
    4.7163   -0.7462    3.3787 H   0  0  0  0  0  0  0  0  0  0  0  0
    8.9175   -0.8063    3.4953 H   0  0  0  0  0  0  0  0  0  0  0  0
    8.9175   -2.4072    2.7070 H   0  0  0  0  0  0  0  0  0  0  0  0
    8.8032   -3.5019    4.9586 H   0  0  0  0  0  0  0  0  0  0  0  0
    8.8032   -1.9236    5.7358 H   0  0  0  0  0  0  0  0  0  0  0  0
   11.0777   -3.0505    4.0219 H   0  0  0  0  0  0  0  0  0  0  0  0
   11.0515   -2.9301    5.7887 H   0  0  0  0  0  0  0  0  0  0  0  0
   11.0777   -1.4563    4.8069 H   0  0  0  0  0  0  0  0  0  0  0  0
  1  2  1  0  0  0  0
  1 12  1  0  0  0  0
  1 13  1  0  0  0  0
  1 14  1  0  0  0  0
  2  3  1  0  0  0  0
  2 15  1  0  0  0  0
  2 16  1  0  0  0  0
  3  4  1  0  0  0  0
  3 17  1  0  0  0  0
  3 18  1  0  0  0  0
  4  5  1  0  0  0  0
  4 19  1  0  0  0  0
  4 20  1  0  0  0  0
  5  6  1  0  0  0  0
  5 21  1  0  0  0  0
  5 22  1  0  0  0  0
  6  7  1  0  0  0  0
  7  8  2  0  0  0  0
  7  9  1  0  0  0  0
  9 10  1  0  0  0  0
  9 23  1  0  0  0  0
  9 24  1  0  0  0  0
 10 11  1  0  0  0  0
 10 25  1  0  0  0  0
 10 26  1  0  0  0  0
 11 27  1  0  0  0  0
 11 28  1  0  0  0  0
 11 29  1  0  0  0  0
M  END
$$$$
