
 OpenBabel07122215493D

 30 30  0  0  0  0  0  0  0  0999 V2000
    1.1089   -0.0633    0.0131 C   0  0  0  0  0  0  0  0  0  0  0  0
    2.6307   -0.0552   -0.0685 C   0  0  0  0  0  0  0  0  0  0  0  0
    3.0734    0.0899   -1.5074 C   0  0  0  0  0  0  0  0  0  0  0  0
    2.3060    0.1863   -2.4623 O   0  0  0  0  0  0  0  0  0  0  0  0
    4.4304    0.1022   -1.6207 O   0  0  0  0  0  0  0  0  0  0  0  0
    4.8780    0.2432   -2.9837 C   0  0  0  0  0  0  0  0  0  0  0  0
    6.3919    0.2550   -2.9984 C   0  0  0  0  0  0  0  0  0  0  0  0
    6.9908    0.4150   -4.4029 C   0  0  0  0  0  0  0  0  0  0  0  0
    8.5069    0.3917   -4.4078 C   0  0  0  0  0  0  0  0  0  0  0  0
    9.2100    0.4712   -5.6179 C   0  0  0  0  0  0  0  0  0  0  0  0
   10.5983    0.2985   -5.6368 C   0  0  0  0  0  0  0  0  0  0  0  0
   11.3054    0.1303   -4.4462 C   0  0  0  0  0  0  0  0  0  0  0  0
   10.6259    0.0989   -3.2375 C   0  0  0  0  0  0  0  0  0  0  0  0
    9.2426    0.2251   -3.2234 C   0  0  0  0  0  0  0  0  0  0  0  0
    0.7649   -0.1674    1.0459 H   0  0  0  0  0  0  0  0  0  0  0  0
    0.6941   -0.8928   -0.5708 H   0  0  0  0  0  0  0  0  0  0  0  0
    0.6942    0.8659   -0.3936 H   0  0  0  0  0  0  0  0  0  0  0  0
    3.0202   -0.9933    0.3413 H   0  0  0  0  0  0  0  0  0  0  0  0
    3.0202    0.7823    0.5202 H   0  0  0  0  0  0  0  0  0  0  0  0
    4.5031    1.1858   -3.3965 H   0  0  0  0  0  0  0  0  0  0  0  0
    4.5131   -0.6025   -3.5770 H   0  0  0  0  0  0  0  0  0  0  0  0
    6.7453   -0.6809   -2.5445 H   0  0  0  0  0  0  0  0  0  0  0  0
    6.7408    1.0684   -2.3491 H   0  0  0  0  0  0  0  0  0  0  0  0
    6.6388    1.3500   -4.8566 H   0  0  0  0  0  0  0  0  0  0  0  0
    6.6383   -0.4114   -5.0354 H   0  0  0  0  0  0  0  0  0  0  0  0
    8.6868    0.6487   -6.5557 H   0  0  0  0  0  0  0  0  0  0  0  0
   11.1321    0.2773   -6.5831 H   0  0  0  0  0  0  0  0  0  0  0  0
   12.3855    0.0241   -4.4562 H   0  0  0  0  0  0  0  0  0  0  0  0
   11.1544   -0.0461   -2.3001 H   0  0  0  0  0  0  0  0  0  0  0  0
    8.7566    0.1735   -2.2543 H   0  0  0  0  0  0  0  0  0  0  0  0
  1  2  1  0  0  0  0
  1 15  1  0  0  0  0
  1 16  1  0  0  0  0
  1 17  1  0  0  0  0
  2  3  1  0  0  0  0
  2 18  1  0  0  0  0
  2 19  1  0  0  0  0
  3  4  2  0  0  0  0
  3  5  1  0  0  0  0
  5  6  1  0  0  0  0
  6  7  1  0  0  0  0
  6 20  1  0  0  0  0
  6 21  1  0  0  0  0
  7  8  1  0  0  0  0
  7 22  1  0  0  0  0
  7 23  1  0  0  0  0
  8  9  1  0  0  0  0
  8 24  1  0  0  0  0
  8 25  1  0  0  0  0
  9 10  1  0  0  0  0
  9 14  2  0  0  0  0
 10 11  2  0  0  0  0
 10 26  1  0  0  0  0
 11 12  1  0  0  0  0
 11 27  1  0  0  0  0
 12 13  2  0  0  0  0
 12 28  1  0  0  0  0
 13 14  1  0  0  0  0
 13 29  1  0  0  0  0
 14 30  1  0  0  0  0
M  END
$$$$
