
 OpenBabel07122215493D

 15 14  0  0  0  0  0  0  0  0999 V2000
    1.0479   -0.0421    0.0571 C   0  0  0  0  0  0  0  0  0  0  0  0
    2.5673   -0.0378    0.0693 C   0  0  0  0  0  0  0  0  0  0  0  0
    3.1091    0.4321    1.4156 C   0  0  0  0  0  0  0  0  0  0  0  0
    4.6312    0.4392    1.4301 C   0  0  0  0  0  0  0  0  0  0  0  0
    5.0995    0.8712    2.7003 O   0  0  0  0  0  0  0  0  0  0  0  0
    0.6769   -0.3808   -0.9150 H   0  0  0  0  0  0  0  0  0  0  0  0
    0.6528    0.9618    0.2420 H   0  0  0  0  0  0  0  0  0  0  0  0
    0.6529   -0.7140    0.8258 H   0  0  0  0  0  0  0  0  0  0  0  0
    2.9330    0.6185   -0.7291 H   0  0  0  0  0  0  0  0  0  0  0  0
    2.9334   -1.0480   -0.1480 H   0  0  0  0  0  0  0  0  0  0  0  0
    2.7402   -0.2146    2.2217 H   0  0  0  0  0  0  0  0  0  0  0  0
    2.7358    1.4381    1.6444 H   0  0  0  0  0  0  0  0  0  0  0  0
    5.0328    1.1108    0.6646 H   0  0  0  0  0  0  0  0  0  0  0  0
    5.0261   -0.5649    1.2476 H   0  0  0  0  0  0  0  0  0  0  0  0
    4.7572    1.7687    2.8483 H   0  0  0  0  0  0  0  0  0  0  0  0
  1  2  1  0  0  0  0
  1  6  1  0  0  0  0
  1  7  1  0  0  0  0
  1  8  1  0  0  0  0
  2  3  1  0  0  0  0
  2  9  1  0  0  0  0
  2 10  1  0  0  0  0
  3  4  1  0  0  0  0
  3 11  1  0  0  0  0
  3 12  1  0  0  0  0
  4  5  1  0  0  0  0
  4 13  1  0  0  0  0
  4 14  1  0  0  0  0
  5 15  1  0  0  0  0
M  END
$$$$
