
 OpenBabel07122215493D

 15 14  0  0  0  0  0  0  0  0999 V2000
    1.1154    0.0285   -0.0005 C   0  0  0  0  0  0  0  0  0  0  0  0
    2.6484    0.0264    0.0354 C   0  0  0  0  0  0  0  0  0  0  0  0
    3.1185    0.6193    1.3664 C   0  0  0  0  0  0  0  0  0  0  0  0
    3.1654   -1.4032   -0.1975 C   0  0  0  0  0  0  0  0  0  0  0  0
    4.9809   -1.5372   -0.2385 S   0  0  0  0  0  0  0  0  0  0  0  0
    0.7238    1.0440    0.1249 H   0  0  0  0  0  0  0  0  0  0  0  0
    0.6997   -0.5932    0.7998 H   0  0  0  0  0  0  0  0  0  0  0  0
    0.7435   -0.3565   -0.9560 H   0  0  0  0  0  0  0  0  0  0  0  0
    3.0018    0.6723   -0.7780 H   0  0  0  0  0  0  0  0  0  0  0  0
    2.7835    0.0071    2.2097 H   0  0  0  0  0  0  0  0  0  0  0  0
    2.7174    1.6299    1.5013 H   0  0  0  0  0  0  0  0  0  0  0  0
    4.2085    0.6985    1.4142 H   0  0  0  0  0  0  0  0  0  0  0  0
    2.7908   -1.7822   -1.1550 H   0  0  0  0  0  0  0  0  0  0  0  0
    2.7990   -2.0739    0.5863 H   0  0  0  0  0  0  0  0  0  0  0  0
    5.1910   -0.6210   -1.1945 H   0  0  0  0  0  0  0  0  0  0  0  0
  1  2  1  0  0  0  0
  1  6  1  0  0  0  0
  1  7  1  0  0  0  0
  1  8  1  0  0  0  0
  2  3  1  0  0  0  0
  2  4  1  0  0  0  0
  2  9  1  0  0  0  0
  3 10  1  0  0  0  0
  3 11  1  0  0  0  0
  3 12  1  0  0  0  0
  4  5  1  0  0  0  0
  4 13  1  0  0  0  0
  4 14  1  0  0  0  0
  5 15  1  0  0  0  0
M  END
$$$$
