
 OpenBabel07122215493D

 24 24  0  0  1  0  0  0  0  0999 V2000
    0.9423    0.1134   -0.0833 C   0  0  0  0  0  0  0  0  0  0  0  0
    2.4637    0.1237   -0.0537 C   0  0  0  0  0  0  0  0  0  0  0  0
    3.0357    0.0051    1.3761 C   0  0  1  0  0  0  0  0  0  0  0  0
    2.5854   -1.2787    2.0489 C   0  0  0  0  0  0  0  0  0  0  0  0
    2.0014   -1.2755    3.3216 C   0  0  0  0  0  0  0  0  0  0  0  0
    1.7986   -2.4848    3.9878 C   0  0  0  0  0  0  0  0  0  0  0  0
    2.0776   -3.6958    3.3513 C   0  0  0  0  0  0  0  0  0  0  0  0
    2.5741   -3.7060    2.0533 C   0  0  0  0  0  0  0  0  0  0  0  0
    2.8343   -2.5047    1.4113 C   0  0  0  0  0  0  0  0  0  0  0  0
    4.5694    0.0546    1.3302 C   0  0  0  0  0  0  0  0  0  0  0  0
    5.2292    0.1308    0.2968 O   0  0  0  0  0  0  0  0  0  0  0  0
    5.1759    0.0102    2.5407 O   0  0  0  0  0  0  0  0  0  0  0  0
    0.5862    0.1722   -1.1157 H   0  0  0  0  0  0  0  0  0  0  0  0
    0.5412    0.9640    0.4746 H   0  0  0  0  0  0  0  0  0  0  0  0
    0.5335   -0.8051    0.3499 H   0  0  0  0  0  0  0  0  0  0  0  0
    2.8271    1.0472   -0.5209 H   0  0  0  0  0  0  0  0  0  0  0  0
    2.8339   -0.6893   -0.6910 H   0  0  0  0  0  0  0  0  0  0  0  0
    2.7020    0.8819    1.9490 H   0  0  0  0  0  0  0  0  0  0  0  0
    1.7142   -0.3461    3.8102 H   0  0  0  0  0  0  0  0  0  0  0  0
    1.4381   -2.4890    5.0133 H   0  0  0  0  0  0  0  0  0  0  0  0
    1.9065   -4.6369    3.8655 H   0  0  0  0  0  0  0  0  0  0  0  0
    2.7935   -4.6405    1.5450 H   0  0  0  0  0  0  0  0  0  0  0  0
    3.2542   -2.5323    0.4074 H   0  0  0  0  0  0  0  0  0  0  0  0
    4.5716   -0.1309    3.2948 H   0  0  0  0  0  0  0  0  0  0  0  0
  1  2  1  0  0  0  0
  1 13  1  0  0  0  0
  1 14  1  0  0  0  0
  1 15  1  0  0  0  0
  2  3  1  0  0  0  0
  2 16  1  0  0  0  0
  2 17  1  0  0  0  0
  3  4  1  0  0  0  0
  3 10  1  0  0  0  0
  3 18  1  1  0  0  0
  4  5  2  0  0  0  0
  4  9  1  0  0  0  0
  5  6  1  0  0  0  0
  5 19  1  0  0  0  0
  6  7  2  0  0  0  0
  6 20  1  0  0  0  0
  7  8  1  0  0  0  0
  7 21  1  0  0  0  0
  8  9  2  0  0  0  0
  8 22  1  0  0  0  0
  9 23  1  0  0  0  0
 10 11  2  0  0  0  0
 10 12  1  0  0  0  0
 12 24  1  0  0  0  0
M  END
$$$$
