
 OpenBabel07122215493D

 17 17  0  0  0  0  0  0  0  0999 V2000
    1.0726    0.0942   -0.0468 C   0  0  0  0  0  0  0  0  0  0  0  0
    2.5774    0.1110   -0.0806 C   0  0  0  0  0  0  0  0  0  0  0  0
    3.2213   -0.6261   -0.8309 O   0  0  0  0  0  0  0  0  0  0  0  0
    3.3028    1.0319    0.8290 C   0  0  0  0  0  0  0  0  0  0  0  0
    4.5134    1.6029    0.4161 C   0  0  0  0  0  0  0  0  0  0  0  0
    5.3011    2.2996    1.3356 C   0  0  0  0  0  0  0  0  0  0  0  0
    4.8548    2.4753    2.6459 C   0  0  0  0  0  0  0  0  0  0  0  0
    3.6271    1.9482    3.0429 C   0  0  0  0  0  0  0  0  0  0  0  0
    2.8505    1.2264    2.1373 C   0  0  0  0  0  0  0  0  0  0  0  0
    0.7059   -0.6817   -0.7262 H   0  0  0  0  0  0  0  0  0  0  0  0
    0.6863    1.0603   -0.3812 H   0  0  0  0  0  0  0  0  0  0  0  0
    0.6972   -0.1450    0.9503 H   0  0  0  0  0  0  0  0  0  0  0  0
    4.8578    1.4872   -0.6101 H   0  0  0  0  0  0  0  0  0  0  0  0
    6.2771    2.6787    1.0413 H   0  0  0  0  0  0  0  0  0  0  0  0
    5.4699    3.0131    3.3634 H   0  0  0  0  0  0  0  0  0  0  0  0
    3.2897    2.0638    4.0697 H   0  0  0  0  0  0  0  0  0  0  0  0
    1.9254    0.7810    2.4869 H   0  0  0  0  0  0  0  0  0  0  0  0
  1  2  1  0  0  0  0
  1 10  1  0  0  0  0
  1 11  1  0  0  0  0
  1 12  1  0  0  0  0
  2  3  2  0  0  0  0
  2  4  1  0  0  0  0
  4  5  1  0  0  0  0
  4  9  2  0  0  0  0
  5  6  2  0  0  0  0
  5 13  1  0  0  0  0
  6  7  1  0  0  0  0
  6 14  1  0  0  0  0
  7  8  2  0  0  0  0
  7 15  1  0  0  0  0
  8  9  1  0  0  0  0
  8 16  1  0  0  0  0
  9 17  1  0  0  0  0
M  END
$$$$
