
 OpenBabel07122215493D

 29 28  0  0  0  0  0  0  0  0999 V2000
    1.0558    0.0296   -0.0453 C   0  0  0  0  0  0  0  0  0  0  0  0
    2.5728    0.0354   -0.0509 C   0  0  0  0  0  0  0  0  0  0  0  0
    3.1009    1.0626   -1.0445 C   0  0  0  0  0  0  0  0  0  0  0  0
    4.6246    1.0706   -1.0522 C   0  0  0  0  0  0  0  0  0  0  0  0
    5.1453    2.0984   -2.0465 C   0  0  0  0  0  0  0  0  0  0  0  0
    6.6693    2.1193   -2.0667 C   0  0  0  0  0  0  0  0  0  0  0  0
    7.1590    3.1546   -3.0681 C   0  0  0  0  0  0  0  0  0  0  0  0
    8.5923    3.1671   -3.0802 O   0  0  0  0  0  0  0  0  0  0  0  0
    9.2855    4.0030   -3.8888 C   0  0  0  0  0  0  0  0  0  0  0  0
    8.5308    4.9385   -4.7937 C   0  0  0  0  0  0  0  0  0  0  0  0
   10.5154    3.9981   -3.8840 O   0  0  0  0  0  0  0  0  0  0  0  0
    0.6817   -0.7088    0.6689 H   0  0  0  0  0  0  0  0  0  0  0  0
    0.6658   -0.2211   -1.0370 H   0  0  0  0  0  0  0  0  0  0  0  0
    0.6658    1.0124    0.2383 H   0  0  0  0  0  0  0  0  0  0  0  0
    2.9424   -0.9626   -0.3140 H   0  0  0  0  0  0  0  0  0  0  0  0
    2.9424    0.2652    0.9553 H   0  0  0  0  0  0  0  0  0  0  0  0
    2.7267    2.0599   -0.7816 H   0  0  0  0  0  0  0  0  0  0  0  0
    2.7267    0.8329   -2.0500 H   0  0  0  0  0  0  0  0  0  0  0  0
    4.9991    0.0748   -1.3182 H   0  0  0  0  0  0  0  0  0  0  0  0
    4.9991    1.3033   -0.0482 H   0  0  0  0  0  0  0  0  0  0  0  0
    4.7647    3.0930   -1.7814 H   0  0  0  0  0  0  0  0  0  0  0  0
    4.7647    1.8666   -3.0493 H   0  0  0  0  0  0  0  0  0  0  0  0
    7.0628    1.1296   -2.3293 H   0  0  0  0  0  0  0  0  0  0  0  0
    7.0628    2.3488   -1.0688 H   0  0  0  0  0  0  0  0  0  0  0  0
    6.7930    4.1435   -2.7716 H   0  0  0  0  0  0  0  0  0  0  0  0
    6.7930    2.8910   -4.0663 H   0  0  0  0  0  0  0  0  0  0  0  0
    7.4471    4.8662   -4.7238 H   0  0  0  0  0  0  0  0  0  0  0  0
    8.8037    4.7217   -5.8302 H   0  0  0  0  0  0  0  0  0  0  0  0
    8.8037    5.9672   -4.5426 H   0  0  0  0  0  0  0  0  0  0  0  0
  1  2  1  0  0  0  0
  1 12  1  0  0  0  0
  1 13  1  0  0  0  0
  1 14  1  0  0  0  0
  2  3  1  0  0  0  0
  2 15  1  0  0  0  0
  2 16  1  0  0  0  0
  3  4  1  0  0  0  0
  3 17  1  0  0  0  0
  3 18  1  0  0  0  0
  4  5  1  0  0  0  0
  4 19  1  0  0  0  0
  4 20  1  0  0  0  0
  5  6  1  0  0  0  0
  5 21  1  0  0  0  0
  5 22  1  0  0  0  0
  6  7  1  0  0  0  0
  6 23  1  0  0  0  0
  6 24  1  0  0  0  0
  7  8  1  0  0  0  0
  7 25  1  0  0  0  0
  7 26  1  0  0  0  0
  8  9  1  0  0  0  0
  9 10  1  0  0  0  0
  9 11  2  0  0  0  0
 10 27  1  0  0  0  0
 10 28  1  0  0  0  0
 10 29  1  0  0  0  0
M  END
$$$$
