
 OpenBabel07122215493D

 16 17  0  0  0  0  0  0  0  0999 V2000
    3.1287    0.0535    0.0147 O   0  0  0  0  0  0  0  0  0  0  0  0
    1.9055    0.0839    0.0042 C   0  0  0  0  0  0  0  0  0  0  0  0
    1.0678    1.3520   -0.0004 C   0  0  0  0  0  0  0  0  0  0  0  0
   -0.2950    0.7909   -0.0082 C   0  0  0  0  0  0  0  0  0  0  0  0
   -1.5315    1.4101   -0.0096 C   0  0  0  0  0  0  0  0  0  0  0  0
   -2.6709    0.5993    0.0049 C   0  0  0  0  0  0  0  0  0  0  0  0
   -2.5557   -0.8011    0.0190 C   0  0  0  0  0  0  0  0  0  0  0  0
   -1.2986   -1.4073    0.0103 C   0  0  0  0  0  0  0  0  0  0  0  0
   -0.1877   -0.5873   -0.0030 C   0  0  0  0  0  0  0  0  0  0  0  0
    1.1110   -1.0596   -0.0042 O   0  0  0  0  0  0  0  0  0  0  0  0
    1.2748    1.9287   -0.9049 H   0  0  0  0  0  0  0  0  0  0  0  0
    1.2614    1.9248    0.9099 H   0  0  0  0  0  0  0  0  0  0  0  0
   -1.6256    2.4915   -0.0169 H   0  0  0  0  0  0  0  0  0  0  0  0
   -3.6593    1.0541    0.0085 H   0  0  0  0  0  0  0  0  0  0  0  0
   -3.4524   -1.4164    0.0388 H   0  0  0  0  0  0  0  0  0  0  0  0
   -1.1965   -2.4870    0.0187 H   0  0  0  0  0  0  0  0  0  0  0  0
  1  2  2  0  0  0  0
  2  3  1  0  0  0  0
  2 10  1  0  0  0  0
  3  4  1  0  0  0  0
  3 11  1  0  0  0  0
  3 12  1  0  0  0  0
  4  5  1  0  0  0  0
  4  9  2  0  0  0  0
  5  6  2  0  0  0  0
  5 13  1  0  0  0  0
  6  7  1  0  0  0  0
  6 14  1  0  0  0  0
  7  8  2  0  0  0  0
  7 15  1  0  0  0  0
  8  9  1  0  0  0  0
  8 16  1  0  0  0  0
  9 10  1  0  0  0  0
M  END
$$$$
