
 OpenBabel07122215493D

 35 34  0  0  0  0  0  0  0  0999 V2000
    0.9098   -0.0575    0.0018 C   0  0  0  0  0  0  0  0  0  0  0  0
    2.4283   -0.0619   -0.0156 C   0  0  0  0  0  0  0  0  0  0  0  0
    2.9564   -0.4113   -1.4078 C   0  0  0  0  0  0  0  0  0  0  0  0
    4.4817   -0.4153   -1.4235 C   0  0  0  0  0  0  0  0  0  0  0  0
    5.0577   -0.7610   -2.8010 C   0  0  0  0  0  0  0  0  0  0  0  0
    6.5727   -0.7483   -2.7503 C   0  0  0  0  0  0  0  0  0  0  0  0
    7.2281   -0.4960   -1.7452 O   0  0  0  0  0  0  0  0  0  0  0  0
    7.1180   -1.0532   -3.9650 O   0  0  0  0  0  0  0  0  0  0  0  0
    8.5582   -1.0505   -3.9544 C   0  0  0  0  0  0  0  0  0  0  0  0
    9.0918   -1.3988   -5.3420 C   0  0  0  0  0  0  0  0  0  0  0  0
   10.6219   -1.4048   -5.3659 C   0  0  0  0  0  0  0  0  0  0  0  0
   11.1597   -1.7530   -6.7532 C   0  0  0  0  0  0  0  0  0  0  0  0
   12.6799   -1.7559   -6.7648 C   0  0  0  0  0  0  0  0  0  0  0  0
    0.5395    0.1931    1.0003 H   0  0  0  0  0  0  0  0  0  0  0  0
    0.5163   -1.0413   -0.2728 H   0  0  0  0  0  0  0  0  0  0  0  0
    0.5163    0.6799   -0.7048 H   0  0  0  0  0  0  0  0  0  0  0  0
    2.7976   -0.7870    0.7196 H   0  0  0  0  0  0  0  0  0  0  0  0
    2.7976    0.9245    0.2900 H   0  0  0  0  0  0  0  0  0  0  0  0
    2.5798    0.3166   -2.1362 H   0  0  0  0  0  0  0  0  0  0  0  0
    2.5798   -1.3969   -1.7061 H   0  0  0  0  0  0  0  0  0  0  0  0
    4.8492   -1.1366   -0.6822 H   0  0  0  0  0  0  0  0  0  0  0  0
    4.8492    0.5706   -1.1107 H   0  0  0  0  0  0  0  0  0  0  0  0
    4.7166   -0.0259   -3.5383 H   0  0  0  0  0  0  0  0  0  0  0  0
    4.7166   -1.7572   -3.1038 H   0  0  0  0  0  0  0  0  0  0  0  0
    8.9169   -1.7908   -3.2288 H   0  0  0  0  0  0  0  0  0  0  0  0
    8.9169   -0.0553   -3.6644 H   0  0  0  0  0  0  0  0  0  0  0  0
    8.7075   -0.6786   -6.0743 H   0  0  0  0  0  0  0  0  0  0  0  0
    8.7075   -2.3794   -5.6474 H   0  0  0  0  0  0  0  0  0  0  0  0
   11.0010   -2.1307   -4.6357 H   0  0  0  0  0  0  0  0  0  0  0  0
   11.0010   -0.4201   -5.0651 H   0  0  0  0  0  0  0  0  0  0  0  0
   10.7941   -1.0274   -7.4890 H   0  0  0  0  0  0  0  0  0  0  0  0
   10.7941   -2.7401   -7.0592 H   0  0  0  0  0  0  0  0  0  0  0  0
   13.0738   -0.7722   -6.4896 H   0  0  0  0  0  0  0  0  0  0  0  0
   13.0538   -2.0062   -7.7622 H   0  0  0  0  0  0  0  0  0  0  0  0
   13.0738   -2.4930   -6.0577 H   0  0  0  0  0  0  0  0  0  0  0  0
  1  2  1  0  0  0  0
  1 14  1  0  0  0  0
  1 15  1  0  0  0  0
  1 16  1  0  0  0  0
  2  3  1  0  0  0  0
  2 17  1  0  0  0  0
  2 18  1  0  0  0  0
  3  4  1  0  0  0  0
  3 19  1  0  0  0  0
  3 20  1  0  0  0  0
  4  5  1  0  0  0  0
  4 21  1  0  0  0  0
  4 22  1  0  0  0  0
  5  6  1  0  0  0  0
  5 23  1  0  0  0  0
  5 24  1  0  0  0  0
  6  7  2  0  0  0  0
  6  8  1  0  0  0  0
  8  9  1  0  0  0  0
  9 10  1  0  0  0  0
  9 25  1  0  0  0  0
  9 26  1  0  0  0  0
 10 11  1  0  0  0  0
 10 27  1  0  0  0  0
 10 28  1  0  0  0  0
 11 12  1  0  0  0  0
 11 29  1  0  0  0  0
 11 30  1  0  0  0  0
 12 13  1  0  0  0  0
 12 31  1  0  0  0  0
 12 32  1  0  0  0  0
 13 33  1  0  0  0  0
 13 34  1  0  0  0  0
 13 35  1  0  0  0  0
M  END
$$$$
