
 OpenBabel07122215493D

 24 24  0  0  0  0  0  0  0  0999 V2000
    0.9119    0.0417    0.0374 C   0  0  0  0  0  0  0  0  0  0  0  0
    2.4296    0.0464    0.0343 C   0  0  0  0  0  0  0  0  0  0  0  0
    2.9431   -0.3302    1.4130 C   0  0  0  0  0  0  0  0  0  0  0  0
    4.4720   -0.3556    1.4572 C   0  0  0  0  0  0  0  0  0  0  0  0
    4.9929   -0.7620    2.8341 C   0  0  0  0  0  0  0  0  0  0  0  0
    4.7094   -2.2144    3.1594 C   0  0  0  0  0  0  0  0  0  0  0  0
    4.4043   -2.2010    4.6332 C   0  0  0  0  0  0  0  0  0  0  0  0
    3.9979   -0.7841    4.8942 C   0  0  0  0  0  0  0  0  0  0  0  0
    3.4687   -0.3798    5.9145 O   0  0  0  0  0  0  0  0  0  0  0  0
    4.3497    0.0132    3.8488 O   0  0  0  0  0  0  0  0  0  0  0  0
    0.5292    0.3140   -0.9487 H   0  0  0  0  0  0  0  0  0  0  0  0
    0.5246    0.7565    0.7711 H   0  0  0  0  0  0  0  0  0  0  0  0
    0.5281   -0.9509    0.2966 H   0  0  0  0  0  0  0  0  0  0  0  0
    2.7993    1.0395   -0.2426 H   0  0  0  0  0  0  0  0  0  0  0  0
    2.8003   -0.6677   -0.7096 H   0  0  0  0  0  0  0  0  0  0  0  0
    2.5323   -1.3086    1.6827 H   0  0  0  0  0  0  0  0  0  0  0  0
    2.5597    0.3853    2.1505 H   0  0  0  0  0  0  0  0  0  0  0  0
    4.8418    0.6485    1.2149 H   0  0  0  0  0  0  0  0  0  0  0  0
    4.8673   -1.0391    0.6958 H   0  0  0  0  0  0  0  0  0  0  0  0
    6.0675   -0.5557    2.8957 H   0  0  0  0  0  0  0  0  0  0  0  0
    5.5538   -2.8608    2.9027 H   0  0  0  0  0  0  0  0  0  0  0  0
    3.8497   -2.6121    2.6104 H   0  0  0  0  0  0  0  0  0  0  0  0
    5.2934   -2.4325    5.2225 H   0  0  0  0  0  0  0  0  0  0  0  0
    3.5872   -2.8863    4.8730 H   0  0  0  0  0  0  0  0  0  0  0  0
  1  2  1  0  0  0  0
  1 11  1  0  0  0  0
  1 12  1  0  0  0  0
  1 13  1  0  0  0  0
  2  3  1  0  0  0  0
  2 14  1  0  0  0  0
  2 15  1  0  0  0  0
  3  4  1  0  0  0  0
  3 16  1  0  0  0  0
  3 17  1  0  0  0  0
  4  5  1  0  0  0  0
  4 18  1  0  0  0  0
  4 19  1  0  0  0  0
  5  6  1  0  0  0  0
  5 10  1  0  0  0  0
  5 20  1  0  0  0  0
  6  7  1  0  0  0  0
  6 21  1  0  0  0  0
  6 22  1  0  0  0  0
  7  8  1  0  0  0  0
  7 23  1  0  0  0  0
  7 24  1  0  0  0  0
  8  9  2  0  0  0  0
  8 10  1  0  0  0  0
M  END
$$$$
