
 OpenBabel07122215493D

 18 17  0  0  0  0  0  0  0  0999 V2000
    1.0015    0.0741   -0.0309 C   0  0  0  0  0  0  0  0  0  0  0  0
    2.5211    0.0835   -0.0404 C   0  0  0  0  0  0  0  0  0  0  0  0
    3.0539    1.0921   -1.0548 C   0  0  0  0  0  0  0  0  0  0  0  0
    4.5788    1.1117   -1.0733 C   0  0  0  0  0  0  0  0  0  0  0  0
    5.1007    2.1213   -2.0860 C   0  0  0  0  0  0  0  0  0  0  0  0
    6.5213    2.1123   -2.0885 O   0  0  0  0  0  0  0  0  0  0  0  0
    0.6296   -0.6512    0.6988 H   0  0  0  0  0  0  0  0  0  0  0  0
    0.6071   -0.1981   -1.0152 H   0  0  0  0  0  0  0  0  0  0  0  0
    0.6072    1.0600    0.2357 H   0  0  0  0  0  0  0  0  0  0  0  0
    2.8887   -0.9204   -0.2826 H   0  0  0  0  0  0  0  0  0  0  0  0
    2.8886    0.3316    0.9622 H   0  0  0  0  0  0  0  0  0  0  0  0
    2.6771    2.0929   -0.8102 H   0  0  0  0  0  0  0  0  0  0  0  0
    2.6777    0.8416   -2.0543 H   0  0  0  0  0  0  0  0  0  0  0  0
    4.9712    0.1159   -1.3143 H   0  0  0  0  0  0  0  0  0  0  0  0
    4.9681    1.3554   -0.0769 H   0  0  0  0  0  0  0  0  0  0  0  0
    4.7593    3.1341   -1.8486 H   0  0  0  0  0  0  0  0  0  0  0  0
    4.7578    1.8717   -3.0948 H   0  0  0  0  0  0  0  0  0  0  0  0
    6.8160    2.3478   -1.1934 H   0  0  0  0  0  0  0  0  0  0  0  0
  1  2  1  0  0  0  0
  1  7  1  0  0  0  0
  1  8  1  0  0  0  0
  1  9  1  0  0  0  0
  2  3  1  0  0  0  0
  2 10  1  0  0  0  0
  2 11  1  0  0  0  0
  3  4  1  0  0  0  0
  3 12  1  0  0  0  0
  3 13  1  0  0  0  0
  4  5  1  0  0  0  0
  4 14  1  0  0  0  0
  4 15  1  0  0  0  0
  5  6  1  0  0  0  0
  5 16  1  0  0  0  0
  5 17  1  0  0  0  0
  6 18  1  0  0  0  0
M  END
$$$$
