
 OpenBabel07122215493D

 18 18  0  0  0  0  0  0  0  0999 V2000
    0.9761    0.0017    0.0622 O   0  0  0  0  0  0  0  0  0  0  0  0
    2.2038   -0.0137    0.0469 C   0  0  0  0  0  0  0  0  0  0  0  0
    2.9517    0.5228   -1.1024 C   0  0  0  0  0  0  0  0  0  0  0  0
    4.2923    0.5221   -1.1409 C   0  0  0  0  0  0  0  0  0  0  0  0
    5.0160    1.1235   -2.2705 C   0  0  0  0  0  0  0  0  0  0  0  0
    6.1270    0.4872   -2.8370 C   0  0  0  0  0  0  0  0  0  0  0  0
    6.8458    1.1073   -3.8660 C   0  0  0  0  0  0  0  0  0  0  0  0
    6.4263    2.3364   -4.3741 C   0  0  0  0  0  0  0  0  0  0  0  0
    5.3218    2.9748   -3.8190 C   0  0  0  0  0  0  0  0  0  0  0  0
    4.6342    2.3802   -2.7619 C   0  0  0  0  0  0  0  0  0  0  0  0
    2.7966   -0.4136    0.8834 H   0  0  0  0  0  0  0  0  0  0  0  0
    2.3414    0.9267   -1.9025 H   0  0  0  0  0  0  0  0  0  0  0  0
    4.8969    0.1090   -0.3379 H   0  0  0  0  0  0  0  0  0  0  0  0
    6.4385   -0.4988   -2.4996 H   0  0  0  0  0  0  0  0  0  0  0  0
    7.7357    0.6337   -4.2737 H   0  0  0  0  0  0  0  0  0  0  0  0
    6.9590    2.7977   -5.2016 H   0  0  0  0  0  0  0  0  0  0  0  0
    4.9978    3.9405   -4.1970 H   0  0  0  0  0  0  0  0  0  0  0  0
    3.7923    2.9112   -2.3238 H   0  0  0  0  0  0  0  0  0  0  0  0
  1  2  2  0  0  0  0
  2  3  1  0  0  0  0
  2 11  1  0  0  0  0
  3  4  2  0  0  0  0
  3 12  1  0  0  0  0
  4  5  1  0  0  0  0
  4 13  1  0  0  0  0
  5  6  1  0  0  0  0
  5 10  2  0  0  0  0
  6  7  2  0  0  0  0
  6 14  1  0  0  0  0
  7  8  1  0  0  0  0
  7 15  1  0  0  0  0
  8  9  2  0  0  0  0
  8 16  1  0  0  0  0
  9 10  1  0  0  0  0
  9 17  1  0  0  0  0
 10 18  1  0  0  0  0
M  END
$$$$
