
 OpenBabel07122215493D

 31 31  0  0  1  0  0  0  0  0999 V2000
    0.9582    0.0473   -0.0775 C   0  0  0  0  0  0  0  0  0  0  0  0
    2.4910   -0.0079   -0.0436 C   0  0  0  0  0  0  0  0  0  0  0  0
    2.9247   -1.1403    0.8917 C   0  0  0  0  0  0  0  0  0  0  0  0
    3.0610   -0.1222   -1.4940 C   0  0  2  0  0  0  0  0  0  0  0  0
    4.1401   -1.2111   -1.6417 C   0  0  0  0  0  0  0  0  0  0  0  0
    4.6761   -1.3158   -3.0590 C   0  0  0  0  0  0  0  0  0  0  0  0
    5.2181    0.0231   -3.5578 C   0  0  1  0  0  0  0  0  0  0  0  0
    5.6763   -0.1182   -5.0055 C   0  0  0  0  0  0  0  0  0  0  0  0
    4.1642    1.1331   -3.4196 C   0  0  0  0  0  0  0  0  0  0  0  0
    3.5978    1.2388   -1.9989 C   0  0  2  0  0  0  0  0  0  0  0  0
    4.6094    1.7491   -1.1273 O   0  0  0  0  0  0  0  0  0  0  0  0
    0.5520    0.1581    0.9338 H   0  0  0  0  0  0  0  0  0  0  0  0
    0.5411   -0.8711   -0.5060 H   0  0  0  0  0  0  0  0  0  0  0  0
    0.6054    0.8940   -0.6751 H   0  0  0  0  0  0  0  0  0  0  0  0
    2.8303    0.9305    0.4122 H   0  0  0  0  0  0  0  0  0  0  0  0
    2.5804   -2.1126    0.5239 H   0  0  0  0  0  0  0  0  0  0  0  0
    2.5164   -1.0011    1.8965 H   0  0  0  0  0  0  0  0  0  0  0  0
    4.0143   -1.1691    0.9950 H   0  0  0  0  0  0  0  0  0  0  0  0
    2.2379   -0.4021   -2.1687 H   0  0  0  0  0  0  0  0  0  0  0  0
    3.7289   -2.1897   -1.3723 H   0  0  0  0  0  0  0  0  0  0  0  0
    4.9801   -1.0113   -0.9671 H   0  0  0  0  0  0  0  0  0  0  0  0
    3.8794   -1.6774   -3.7211 H   0  0  0  0  0  0  0  0  0  0  0  0
    5.4713   -2.0711   -3.0772 H   0  0  0  0  0  0  0  0  0  0  0  0
    6.0943    0.2911   -2.9530 H   0  0  0  0  0  0  0  0  0  0  0  0
    4.8422   -0.4007   -5.6567 H   0  0  0  0  0  0  0  0  0  0  0  0
    6.4472   -0.8917   -5.0899 H   0  0  0  0  0  0  0  0  0  0  0  0
    6.0971    0.8219   -5.3738 H   0  0  0  0  0  0  0  0  0  0  0  0
    3.3383    0.9437   -4.1170 H   0  0  0  0  0  0  0  0  0  0  0  0
    4.6195    2.0901   -3.7033 H   0  0  0  0  0  0  0  0  0  0  0  0
    2.7888    1.9778   -1.9970 H   0  0  0  0  0  0  0  0  0  0  0  0
    5.3109    1.0886   -1.0442 H   0  0  0  0  0  0  0  0  0  0  0  0
  1  2  1  0  0  0  0
  1 12  1  0  0  0  0
  1 13  1  0  0  0  0
  1 14  1  0  0  0  0
  2  3  1  0  0  0  0
  2  4  1  0  0  0  0
  2 15  1  0  0  0  0
  3 16  1  0  0  0  0
  3 17  1  0  0  0  0
  3 18  1  0  0  0  0
  4  5  1  0  0  0  0
  4 10  1  0  0  0  0
  4 19  1  6  0  0  0
  5  6  1  0  0  0  0
  5 20  1  0  0  0  0
  5 21  1  0  0  0  0
  6  7  1  0  0  0  0
  6 22  1  0  0  0  0
  6 23  1  0  0  0  0
  7  8  1  0  0  0  0
  7  9  1  0  0  0  0
  7 24  1  1  0  0  0
  8 25  1  0  0  0  0
  8 26  1  0  0  0  0
  8 27  1  0  0  0  0
  9 10  1  0  0  0  0
  9 28  1  0  0  0  0
  9 29  1  0  0  0  0
 10 11  1  0  0  0  0
 10 30  1  6  0  0  0
 11 31  1  0  0  0  0
M  END
$$$$
