
 OpenBabel07122215493D

 34 33  0  0  0  0  0  0  0  0999 V2000
    1.0354   -0.0496    0.0422 C   0  0  0  0  0  0  0  0  0  0  0  0
    2.5513   -0.0528    0.0483 C   0  0  0  0  0  0  0  0  0  0  0  0
    3.0742   -0.7204    1.3113 C   0  0  0  0  0  0  0  0  0  0  0  0
    4.5938   -0.7256    1.3211 C   0  0  0  0  0  0  0  0  0  0  0  0
    5.0991   -1.3949    2.5874 C   0  0  0  0  0  0  0  0  0  0  0  0
    6.6143   -1.4043    2.6052 C   0  0  0  0  0  0  0  0  0  0  0  0
    7.1101   -2.0765    3.8769 C   0  0  0  0  0  0  0  0  0  0  0  0
    8.6229   -2.0743    3.8727 C   0  0  0  0  0  0  0  0  0  0  0  0
    9.2060   -2.7281    5.1097 C   0  0  0  0  0  0  0  0  0  0  0  0
   10.7220   -2.7389    5.1300 C   0  0  0  0  0  0  0  0  0  0  0  0
   11.5159   -2.1382    3.9935 C   0  0  0  0  0  0  0  0  0  0  0  0
   11.3154   -3.2461    6.0897 O   0  0  0  0  0  0  0  0  0  0  0  0
    0.6614    0.4303   -0.8657 H   0  0  0  0  0  0  0  0  0  0  0  0
    0.6465    0.4962    0.9078 H   0  0  0  0  0  0  0  0  0  0  0  0
    0.6465   -1.0723    0.0787 H   0  0  0  0  0  0  0  0  0  0  0  0
    2.9225    0.9770   -0.0103 H   0  0  0  0  0  0  0  0  0  0  0  0
    2.9225   -0.5844   -0.8357 H   0  0  0  0  0  0  0  0  0  0  0  0
    2.7018   -1.7507    1.3718 H   0  0  0  0  0  0  0  0  0  0  0  0
    2.7018   -0.1901    2.1966 H   0  0  0  0  0  0  0  0  0  0  0  0
    4.9730    0.3022    1.2664 H   0  0  0  0  0  0  0  0  0  0  0  0
    4.9730   -1.2593    0.4410 H   0  0  0  0  0  0  0  0  0  0  0  0
    4.7232   -2.4237    2.6434 H   0  0  0  0  0  0  0  0  0  0  0  0
    4.7232   -0.8617    3.4690 H   0  0  0  0  0  0  0  0  0  0  0  0
    6.9964   -0.3768    2.5486 H   0  0  0  0  0  0  0  0  0  0  0  0
    6.9964   -1.9363    1.7243 H   0  0  0  0  0  0  0  0  0  0  0  0
    6.7362   -3.1055    3.9292 H   0  0  0  0  0  0  0  0  0  0  0  0
    6.7362   -1.5401    4.7565 H   0  0  0  0  0  0  0  0  0  0  0  0
    8.9714   -1.0359    3.8066 H   0  0  0  0  0  0  0  0  0  0  0  0
    8.9714   -2.6046    2.9775 H   0  0  0  0  0  0  0  0  0  0  0  0
    8.8611   -3.7670    5.1753 H   0  0  0  0  0  0  0  0  0  0  0  0
    8.8611   -2.1972    6.0051 H   0  0  0  0  0  0  0  0  0  0  0  0
   10.9042   -1.7171    3.1970 H   0  0  0  0  0  0  0  0  0  0  0  0
   12.1343   -2.9171    3.5427 H   0  0  0  0  0  0  0  0  0  0  0  0
   12.1343   -1.3269    4.3832 H   0  0  0  0  0  0  0  0  0  0  0  0
  1  2  1  0  0  0  0
  1 13  1  0  0  0  0
  1 14  1  0  0  0  0
  1 15  1  0  0  0  0
  2  3  1  0  0  0  0
  2 16  1  0  0  0  0
  2 17  1  0  0  0  0
  3  4  1  0  0  0  0
  3 18  1  0  0  0  0
  3 19  1  0  0  0  0
  4  5  1  0  0  0  0
  4 20  1  0  0  0  0
  4 21  1  0  0  0  0
  5  6  1  0  0  0  0
  5 22  1  0  0  0  0
  5 23  1  0  0  0  0
  6  7  1  0  0  0  0
  6 24  1  0  0  0  0
  6 25  1  0  0  0  0
  7  8  1  0  0  0  0
  7 26  1  0  0  0  0
  7 27  1  0  0  0  0
  8  9  1  0  0  0  0
  8 28  1  0  0  0  0
  8 29  1  0  0  0  0
  9 10  1  0  0  0  0
  9 30  1  0  0  0  0
  9 31  1  0  0  0  0
 10 11  1  0  0  0  0
 10 12  2  0  0  0  0
 11 32  1  0  0  0  0
 11 33  1  0  0  0  0
 11 34  1  0  0  0  0
M  END
$$$$
