
 OpenBabel07122215493D

 22 22  0  0  0  0  0  0  0  0999 V2000
    0.8826   -0.1033   -0.0219 C   0  0  0  0  0  0  0  0  0  0  0  0
    2.4073   -0.0582    0.0030 C   0  0  0  0  0  0  0  0  0  0  0  0
    2.8917    0.4771    1.2366 O   0  0  0  0  0  0  0  0  0  0  0  0
    2.7524    1.8262    1.4489 C   0  0  0  0  0  0  0  0  0  0  0  0
    3.1168    2.2338    2.7428 C   0  0  0  0  0  0  0  0  0  0  0  0
    3.0116    3.5798    3.1057 C   0  0  0  0  0  0  0  0  0  0  0  0
    3.4139    4.0237    4.4552 C   0  0  0  0  0  0  0  0  0  0  0  0
    3.3394    5.2034    4.7938 O   0  0  0  0  0  0  0  0  0  0  0  0
    2.5264    4.5191    2.1926 C   0  0  0  0  0  0  0  0  0  0  0  0
    2.1526    4.1210    0.9124 C   0  0  0  0  0  0  0  0  0  0  0  0
    2.2847    2.7876    0.5352 C   0  0  0  0  0  0  0  0  0  0  0  0
    1.9542    2.4616   -0.7514 O   0  0  0  0  0  0  0  0  0  0  0  0
    0.5210   -0.4610   -0.9888 H   0  0  0  0  0  0  0  0  0  0  0  0
    0.4178    0.8688    0.1699 H   0  0  0  0  0  0  0  0  0  0  0  0
    0.5142   -0.7570    0.7732 H   0  0  0  0  0  0  0  0  0  0  0  0
    2.8591    0.4515   -0.8550 H   0  0  0  0  0  0  0  0  0  0  0  0
    2.7827   -1.0846   -0.0734 H   0  0  0  0  0  0  0  0  0  0  0  0
    3.4791    1.4935    3.4534 H   0  0  0  0  0  0  0  0  0  0  0  0
    3.7874    3.2559    5.1501 H   0  0  0  0  0  0  0  0  0  0  0  0
    2.4470    5.5667    2.4726 H   0  0  0  0  0  0  0  0  0  0  0  0
    1.7750    4.8606    0.2140 H   0  0  0  0  0  0  0  0  0  0  0  0
    1.4848    3.1902   -1.1857 H   0  0  0  0  0  0  0  0  0  0  0  0
  1  2  1  0  0  0  0
  1 13  1  0  0  0  0
  1 14  1  0  0  0  0
  1 15  1  0  0  0  0
  2  3  1  0  0  0  0
  2 16  1  0  0  0  0
  2 17  1  0  0  0  0
  3  4  1  0  0  0  0
  4  5  1  0  0  0  0
  4 11  2  0  0  0  0
  5  6  2  0  0  0  0
  5 18  1  0  0  0  0
  6  7  1  0  0  0  0
  6  9  1  0  0  0  0
  7  8  2  0  0  0  0
  7 19  1  0  0  0  0
  9 10  2  0  0  0  0
  9 20  1  0  0  0  0
 10 11  1  0  0  0  0
 10 21  1  0  0  0  0
 11 12  1  0  0  0  0
 12 22  1  0  0  0  0
M  END
$$$$
