
 OpenBabel07122215493D

 19 19  0  0  0  0  0  0  0  0999 V2000
    1.1053    0.0175    0.0372 C   0  0  0  0  0  0  0  0  0  0  0  0
    2.6330   -0.0264    0.0564 C   0  0  0  0  0  0  0  0  0  0  0  0
    3.1551   -1.3775    0.5698 C   0  0  0  0  0  0  0  0  0  0  0  0
    3.3922   -1.0943    2.3410 S   0  0  0  0  0  0  0  0  0  0  0  0
    3.5428    0.6153    2.0499 C   0  0  0  0  0  0  0  0  0  0  0  0
    3.1550    1.0772    0.9046 N   0  0  0  0  0  0  0  0  0  0  0  0
    4.1380    1.4587    3.1291 C   0  0  0  0  0  0  0  0  0  0  0  0
    4.4892   -1.7586   -0.0588 C   0  0  0  0  0  0  0  0  0  0  0  0
    0.7124   -0.7671   -0.6197 H   0  0  0  0  0  0  0  0  0  0  0  0
    0.7436    0.9808   -0.3362 H   0  0  0  0  0  0  0  0  0  0  0  0
    0.6814   -0.1344    1.0350 H   0  0  0  0  0  0  0  0  0  0  0  0
    2.9793    0.1407   -0.9717 H   0  0  0  0  0  0  0  0  0  0  0  0
    2.4342   -2.1860    0.4144 H   0  0  0  0  0  0  0  0  0  0  0  0
    4.4318    0.8543    3.9924 H   0  0  0  0  0  0  0  0  0  0  0  0
    3.4112    2.2071    3.4553 H   0  0  0  0  0  0  0  0  0  0  0  0
    5.0269    1.9701    2.7473 H   0  0  0  0  0  0  0  0  0  0  0  0
    5.2300   -0.9544    0.0151 H   0  0  0  0  0  0  0  0  0  0  0  0
    4.3496   -1.9801   -1.1223 H   0  0  0  0  0  0  0  0  0  0  0  0
    4.9051   -2.6559    0.4122 H   0  0  0  0  0  0  0  0  0  0  0  0
  1  2  1  0  0  0  0
  1  9  1  0  0  0  0
  1 10  1  0  0  0  0
  1 11  1  0  0  0  0
  2  3  1  0  0  0  0
  2  6  1  0  0  0  0
  2 12  1  0  0  0  0
  3  4  1  0  0  0  0
  3  8  1  0  0  0  0
  3 13  1  0  0  0  0
  4  5  1  0  0  0  0
  5  6  2  0  0  0  0
  5  7  1  0  0  0  0
  7 14  1  0  0  0  0
  7 15  1  0  0  0  0
  7 16  1  0  0  0  0
  8 17  1  0  0  0  0
  8 18  1  0  0  0  0
  8 19  1  0  0  0  0
M  END
$$$$
