
 OpenBabel07122215493D

 27 27  0  0  0  0  0  0  0  0999 V2000
    0.9777   -0.1063    0.0252 C   0  0  0  0  0  0  0  0  0  0  0  0
    2.4971   -0.1389    0.0267 C   0  0  0  0  0  0  0  0  0  0  0  0
    2.9587   -1.5019    0.1426 O   0  0  0  0  0  0  0  0  0  0  0  0
    4.3155   -1.6256    0.1430 C   0  0  0  0  0  0  0  0  0  0  0  0
    5.0894   -0.6725    0.0821 O   0  0  0  0  0  0  0  0  0  0  0  0
    4.8147   -3.0599    0.2994 C   0  0  0  0  0  0  0  0  0  0  0  0
    4.9949   -3.4106    1.7811 C   0  0  0  0  0  0  0  0  0  0  0  0
    5.6100   -4.7999    1.9657 C   0  0  0  0  0  0  0  0  0  0  0  0
    4.8037   -5.8728    1.2410 C   0  0  0  0  0  0  0  0  0  0  0  0
    4.6345   -5.5227   -0.2352 C   0  0  0  0  0  0  0  0  0  0  0  0
    3.9963   -4.1386   -0.4199 C   0  0  0  0  0  0  0  0  0  0  0  0
    0.6079    0.9210   -0.0681 H   0  0  0  0  0  0  0  0  0  0  0  0
    0.5782   -0.5351    0.9495 H   0  0  0  0  0  0  0  0  0  0  0  0
    0.5770   -0.6953   -0.8055 H   0  0  0  0  0  0  0  0  0  0  0  0
    2.8673    0.4538    0.8723 H   0  0  0  0  0  0  0  0  0  0  0  0
    2.8653    0.2988   -0.9092 H   0  0  0  0  0  0  0  0  0  0  0  0
    5.8069   -3.0618   -0.1757 H   0  0  0  0  0  0  0  0  0  0  0  0
    4.0240   -3.3750    2.2910 H   0  0  0  0  0  0  0  0  0  0  0  0
    5.6344   -2.6667    2.2700 H   0  0  0  0  0  0  0  0  0  0  0  0
    5.6716   -5.0415    3.0327 H   0  0  0  0  0  0  0  0  0  0  0  0
    6.6376   -4.7996    1.5801 H   0  0  0  0  0  0  0  0  0  0  0  0
    3.8182   -5.9751    1.7116 H   0  0  0  0  0  0  0  0  0  0  0  0
    5.3056   -6.8429    1.3400 H   0  0  0  0  0  0  0  0  0  0  0  0
    4.0251   -6.2881   -0.7280 H   0  0  0  0  0  0  0  0  0  0  0  0
    5.6193   -5.5398   -0.7203 H   0  0  0  0  0  0  0  0  0  0  0  0
    2.9693   -4.1624   -0.0361 H   0  0  0  0  0  0  0  0  0  0  0  0
    3.9311   -3.9115   -1.4901 H   0  0  0  0  0  0  0  0  0  0  0  0
  1  2  1  0  0  0  0
  1 12  1  0  0  0  0
  1 13  1  0  0  0  0
  1 14  1  0  0  0  0
  2  3  1  0  0  0  0
  2 15  1  0  0  0  0
  2 16  1  0  0  0  0
  3  4  1  0  0  0  0
  4  5  2  0  0  0  0
  4  6  1  0  0  0  0
  6  7  1  0  0  0  0
  6 11  1  0  0  0  0
  6 17  1  0  0  0  0
  7  8  1  0  0  0  0
  7 18  1  0  0  0  0
  7 19  1  0  0  0  0
  8  9  1  0  0  0  0
  8 20  1  0  0  0  0
  8 21  1  0  0  0  0
  9 10  1  0  0  0  0
  9 22  1  0  0  0  0
  9 23  1  0  0  0  0
 10 11  1  0  0  0  0
 10 24  1  0  0  0  0
 10 25  1  0  0  0  0
 11 26  1  0  0  0  0
 11 27  1  0  0  0  0
M  END
$$$$
