
 OpenBabel07122215493D

 42 41  0  0  0  0  0  0  0  0999 V2000
    0.9745   -0.1629   -0.0463 C   0  0  0  0  0  0  0  0  0  0  0  0
    2.4821   -0.1058   -0.0472 C   0  0  0  0  0  0  0  0  0  0  0  0
    3.1841    1.0435   -0.0555 C   0  0  0  0  0  0  0  0  0  0  0  0
    2.5047    2.3612   -0.0606 C   0  0  0  0  0  0  0  0  0  0  0  0
    3.4234    3.5783   -0.0598 C   0  0  0  0  0  0  0  0  0  0  0  0
    2.6326    4.8613   -0.0396 C   0  0  0  0  0  0  0  0  0  0  0  0
    1.2828    4.8659   -0.0102 C   0  0  0  0  0  0  0  0  0  0  0  0
    0.5101    6.1152   -0.0674 C   0  0  0  0  0  0  0  0  0  0  0  0
   -1.0015    5.9381   -0.0775 C   0  0  0  0  0  0  0  0  0  0  0  0
   -1.7230    7.3022   -0.0948 C   0  0  0  0  0  0  0  0  0  0  0  0
   -1.4367    8.1031    1.1813 C   0  0  0  0  0  0  0  0  0  0  0  0
   -1.3962    8.1026   -1.3393 C   0  0  0  0  0  0  0  0  0  0  0  0
   -0.2034    8.6686   -1.6192 C   0  0  0  0  0  0  0  0  0  0  0  0
   -3.1292    7.0399   -0.1336 O   0  0  0  0  0  0  0  0  0  0  0  0
    3.4269    6.1441   -0.0743 C   0  0  0  0  0  0  0  0  0  0  0  0
    3.2146   -1.4091   -0.0387 C   0  0  0  0  0  0  0  0  0  0  0  0
    0.4971    0.8229   -0.0524 H   0  0  0  0  0  0  0  0  0  0  0  0
    0.6138   -0.6773    0.8491 H   0  0  0  0  0  0  0  0  0  0  0  0
    0.6136   -0.6883   -0.9352 H   0  0  0  0  0  0  0  0  0  0  0  0
    4.2697    1.0334   -0.0552 H   0  0  0  0  0  0  0  0  0  0  0  0
    1.8689    2.4051    0.8357 H   0  0  0  0  0  0  0  0  0  0  0  0
    1.8674    2.4052   -0.9562 H   0  0  0  0  0  0  0  0  0  0  0  0
    4.0580    3.5602   -0.9541 H   0  0  0  0  0  0  0  0  0  0  0  0
    4.0767    3.5504    0.8195 H   0  0  0  0  0  0  0  0  0  0  0  0
    0.6834    3.9629   -0.0133 H   0  0  0  0  0  0  0  0  0  0  0  0
    0.8190    6.5632   -1.0104 H   0  0  0  0  0  0  0  0  0  0  0  0
    0.8154    6.7409    0.7748 H   0  0  0  0  0  0  0  0  0  0  0  0
   -1.3218    5.3525    0.7961 H   0  0  0  0  0  0  0  0  0  0  0  0
   -1.3053    5.3375   -0.9475 H   0  0  0  0  0  0  0  0  0  0  0  0
   -0.3842    8.3878    1.2737 H   0  0  0  0  0  0  0  0  0  0  0  0
   -1.7069    7.5246    2.0721 H   0  0  0  0  0  0  0  0  0  0  0  0
   -2.0285    9.0233    1.2049 H   0  0  0  0  0  0  0  0  0  0  0  0
   -2.1889    8.1964   -2.0757 H   0  0  0  0  0  0  0  0  0  0  0  0
    0.6348    8.6087   -0.9322 H   0  0  0  0  0  0  0  0  0  0  0  0
   -0.0072    9.1504   -2.5671 H   0  0  0  0  0  0  0  0  0  0  0  0
   -3.3521    6.5197    0.6577 H   0  0  0  0  0  0  0  0  0  0  0  0
    4.5041    5.9565   -0.0772 H   0  0  0  0  0  0  0  0  0  0  0  0
    3.2035    6.7592    0.8047 H   0  0  0  0  0  0  0  0  0  0  0  0
    3.1930    6.7246   -0.9744 H   0  0  0  0  0  0  0  0  0  0  0  0
    2.5211   -2.2541   -0.0335 H   0  0  0  0  0  0  0  0  0  0  0  0
    3.8456   -1.4824    0.8531 H   0  0  0  0  0  0  0  0  0  0  0  0
    3.8459   -1.4935   -0.9293 H   0  0  0  0  0  0  0  0  0  0  0  0
  1  2  1  0  0  0  0
  1 17  1  0  0  0  0
  1 18  1  0  0  0  0
  1 19  1  0  0  0  0
  2  3  2  0  0  0  0
  2 16  1  0  0  0  0
  3  4  1  0  0  0  0
  3 20  1  0  0  0  0
  4  5  1  0  0  0  0
  4 21  1  0  0  0  0
  4 22  1  0  0  0  0
  5  6  1  0  0  0  0
  5 23  1  0  0  0  0
  5 24  1  0  0  0  0
  6  7  2  0  0  0  0
  6 15  1  0  0  0  0
  7  8  1  0  0  0  0
  7 25  1  0  0  0  0
  8  9  1  0  0  0  0
  8 26  1  0  0  0  0
  8 27  1  0  0  0  0
  9 10  1  0  0  0  0
  9 28  1  0  0  0  0
  9 29  1  0  0  0  0
 10 11  1  0  0  0  0
 10 12  1  0  0  0  0
 10 14  1  0  0  0  0
 11 30  1  0  0  0  0
 11 31  1  0  0  0  0
 11 32  1  0  0  0  0
 12 13  2  0  0  0  0
 12 33  1  0  0  0  0
 13 34  1  0  0  0  0
 13 35  1  0  0  0  0
 14 36  1  0  0  0  0
 15 37  1  0  0  0  0
 15 38  1  0  0  0  0
 15 39  1  0  0  0  0
 16 40  1  0  0  0  0
 16 41  1  0  0  0  0
 16 42  1  0  0  0  0
M  END
$$$$
