
 OpenBabel07122215493D

 27 26  0  0  0  0  0  0  0  0999 V2000
    0.9875    0.0978   -0.0896 C   0  0  0  0  0  0  0  0  0  0  0  0
    2.4948    0.0951   -0.0224 C   0  0  0  0  0  0  0  0  0  0  0  0
    3.1789    0.0481    1.1368 C   0  0  0  0  0  0  0  0  0  0  0  0
    2.4802   -0.0054    2.4546 C   0  0  0  0  0  0  0  0  0  0  0  0
    3.3829   -0.0554    3.6852 C   0  0  0  0  0  0  0  0  0  0  0  0
    2.6014   -0.1084    4.9928 C   0  0  0  0  0  0  0  0  0  0  0  0
    1.2529   -0.1103    5.0399 C   0  0  0  0  0  0  0  0  0  0  0  0
    0.4580   -0.1607    6.2810 C   0  0  0  0  0  0  0  0  0  0  0  0
   -0.7688   -0.1591    6.2420 O   0  0  0  0  0  0  0  0  0  0  0  0
    3.4358   -0.1591    6.2415 C   0  0  0  0  0  0  0  0  0  0  0  0
    3.2312    0.1481   -1.3276 C   0  0  0  0  0  0  0  0  0  0  0  0
    0.5090    0.0579    0.8943 H   0  0  0  0  0  0  0  0  0  0  0  0
    0.6284   -0.7732   -0.6450 H   0  0  0  0  0  0  0  0  0  0  0  0
    0.6284    1.0110   -0.5726 H   0  0  0  0  0  0  0  0  0  0  0  0
    4.2662    0.0483    1.1315 H   0  0  0  0  0  0  0  0  0  0  0  0
    1.8440   -0.9009    2.4579 H   0  0  0  0  0  0  0  0  0  0  0  0
    1.8440    0.8869    2.5304 H   0  0  0  0  0  0  0  0  0  0  0  0
    4.0338    0.8286    3.6880 H   0  0  0  0  0  0  0  0  0  0  0  0
    4.0338   -0.9367    3.6164 H   0  0  0  0  0  0  0  0  0  0  0  0
    0.6274   -0.0744    4.1538 H   0  0  0  0  0  0  0  0  0  0  0  0
    1.0135   -0.1991    7.2274 H   0  0  0  0  0  0  0  0  0  0  0  0
    4.5072   -0.1502    6.0217 H   0  0  0  0  0  0  0  0  0  0  0  0
    3.2206   -1.0753    6.8014 H   0  0  0  0  0  0  0  0  0  0  0  0
    3.2206    0.7087    6.8738 H   0  0  0  0  0  0  0  0  0  0  0  0
    2.5399    0.1824   -2.1749 H   0  0  0  0  0  0  0  0  0  0  0  0
    3.8626   -0.7387   -1.4463 H   0  0  0  0  0  0  0  0  0  0  0  0
    3.8626    1.0415   -1.3740 H   0  0  0  0  0  0  0  0  0  0  0  0
  1  2  1  0  0  0  0
  1 12  1  0  0  0  0
  1 13  1  0  0  0  0
  1 14  1  0  0  0  0
  2  3  2  0  0  0  0
  2 11  1  0  0  0  0
  3  4  1  0  0  0  0
  3 15  1  0  0  0  0
  4  5  1  0  0  0  0
  4 16  1  0  0  0  0
  4 17  1  0  0  0  0
  5  6  1  0  0  0  0
  5 18  1  0  0  0  0
  5 19  1  0  0  0  0
  6  7  2  0  0  0  0
  6 10  1  0  0  0  0
  7  8  1  0  0  0  0
  7 20  1  0  0  0  0
  8  9  2  0  0  0  0
  8 21  1  0  0  0  0
 10 22  1  0  0  0  0
 10 23  1  0  0  0  0
 10 24  1  0  0  0  0
 11 25  1  0  0  0  0
 11 26  1  0  0  0  0
 11 27  1  0  0  0  0
M  END
$$$$
