
 OpenBabel07122215493D

 35 34  0  0  0  0  0  0  0  0999 V2000
    0.9256   -0.0691    0.0456 C   0  0  0  0  0  0  0  0  0  0  0  0
    2.4420   -0.0727    0.0388 C   0  0  0  0  0  0  0  0  0  0  0  0
    2.9664   -0.7481   -1.2210 C   0  0  0  0  0  0  0  0  0  0  0  0
    4.4878   -0.7540   -1.2321 C   0  0  0  0  0  0  0  0  0  0  0  0
    5.0023   -1.4307   -2.4944 C   0  0  0  0  0  0  0  0  0  0  0  0
    6.5233   -1.4392   -2.5103 C   0  0  0  0  0  0  0  0  0  0  0  0
    7.0399   -2.1173   -3.7753 C   0  0  0  0  0  0  0  0  0  0  0  0
    8.5620   -2.1221   -3.7843 C   0  0  0  0  0  0  0  0  0  0  0  0
    9.1361   -2.7913   -5.0327 C   0  0  0  0  0  0  0  0  0  0  0  0
   10.6489   -2.7633   -4.9805 C   0  0  0  0  0  0  0  0  0  0  0  0
   11.3053   -2.2742   -4.0681 O   0  0  0  0  0  0  0  0  0  0  0  0
   11.1882   -3.3544   -6.0831 O   0  0  0  0  0  0  0  0  0  0  0  0
   12.6208   -3.3542   -6.0827 C   0  0  0  0  0  0  0  0  0  0  0  0
    0.5515    0.4161    0.9509 H   0  0  0  0  0  0  0  0  0  0  0  0
    0.5364   -1.0918    0.0154 H   0  0  0  0  0  0  0  0  0  0  0  0
    0.5364    0.4719   -0.8228 H   0  0  0  0  0  0  0  0  0  0  0  0
    2.8126   -0.5989    0.9263 H   0  0  0  0  0  0  0  0  0  0  0  0
    2.8126    0.9576    0.0920 H   0  0  0  0  0  0  0  0  0  0  0  0
    2.5928   -0.2224   -2.1086 H   0  0  0  0  0  0  0  0  0  0  0  0
    2.5928   -1.7782   -1.2746 H   0  0  0  0  0  0  0  0  0  0  0  0
    4.8644   -1.2817   -0.3473 H   0  0  0  0  0  0  0  0  0  0  0  0
    4.8644    0.2749   -1.1817 H   0  0  0  0  0  0  0  0  0  0  0  0
    4.6247   -0.9028   -3.3787 H   0  0  0  0  0  0  0  0  0  0  0  0
    4.6247   -2.4593   -2.5443 H   0  0  0  0  0  0  0  0  0  0  0  0
    6.8987   -1.9650   -1.6234 H   0  0  0  0  0  0  0  0  0  0  0  0
    6.8987   -0.4095   -2.4572 H   0  0  0  0  0  0  0  0  0  0  0  0
    6.6614   -1.5875   -4.6575 H   0  0  0  0  0  0  0  0  0  0  0  0
    6.6614   -3.1453   -3.8225 H   0  0  0  0  0  0  0  0  0  0  0  0
    8.9280   -2.6408   -2.8889 H   0  0  0  0  0  0  0  0  0  0  0  0
    8.9280   -1.0893   -3.7205 H   0  0  0  0  0  0  0  0  0  0  0  0
    8.7958   -2.2587   -5.9278 H   0  0  0  0  0  0  0  0  0  0  0  0
    8.7958   -3.8316   -5.0846 H   0  0  0  0  0  0  0  0  0  0  0  0
   12.9691   -3.8439   -6.9963 H   0  0  0  0  0  0  0  0  0  0  0  0
   13.0068   -3.9148   -5.2244 H   0  0  0  0  0  0  0  0  0  0  0  0
   13.0068   -2.3290   -6.0745 H   0  0  0  0  0  0  0  0  0  0  0  0
  1  2  1  0  0  0  0
  1 14  1  0  0  0  0
  1 15  1  0  0  0  0
  1 16  1  0  0  0  0
  2  3  1  0  0  0  0
  2 17  1  0  0  0  0
  2 18  1  0  0  0  0
  3  4  1  0  0  0  0
  3 19  1  0  0  0  0
  3 20  1  0  0  0  0
  4  5  1  0  0  0  0
  4 21  1  0  0  0  0
  4 22  1  0  0  0  0
  5  6  1  0  0  0  0
  5 23  1  0  0  0  0
  5 24  1  0  0  0  0
  6  7  1  0  0  0  0
  6 25  1  0  0  0  0
  6 26  1  0  0  0  0
  7  8  1  0  0  0  0
  7 27  1  0  0  0  0
  7 28  1  0  0  0  0
  8  9  1  0  0  0  0
  8 29  1  0  0  0  0
  8 30  1  0  0  0  0
  9 10  1  0  0  0  0
  9 31  1  0  0  0  0
  9 32  1  0  0  0  0
 10 11  2  0  0  0  0
 10 12  1  0  0  0  0
 12 13  1  0  0  0  0
 13 33  1  0  0  0  0
 13 34  1  0  0  0  0
 13 35  1  0  0  0  0
M  END
$$$$
