
 OpenBabel07122215493D

 19 19  0  0  0  0  0  0  0  0999 V2000
    1.1397   -0.0217    0.0315 C   0  0  0  0  0  0  0  0  0  0  0  0
    2.5714   -0.0086    0.0461 O   0  0  0  0  0  0  0  0  0  0  0  0
    3.1397    0.5751   -1.0392 C   0  0  0  0  0  0  0  0  0  0  0  0
    2.5392    1.1375   -1.9464 O   0  0  0  0  0  0  0  0  0  0  0  0
    4.6219    0.5352   -0.9726 C   0  0  0  0  0  0  0  0  0  0  0  0
    5.3335    1.6935   -1.3281 C   0  0  0  0  0  0  0  0  0  0  0  0
    6.7322    1.6891   -1.3515 C   0  0  0  0  0  0  0  0  0  0  0  0
    7.4288    0.5226   -1.0401 C   0  0  0  0  0  0  0  0  0  0  0  0
    6.7300   -0.6383   -0.6962 C   0  0  0  0  0  0  0  0  0  0  0  0
    5.3300   -0.6305   -0.6600 C   0  0  0  0  0  0  0  0  0  0  0  0
    4.6539   -1.7806   -0.3634 O   0  0  0  0  0  0  0  0  0  0  0  0
    0.7897   -0.5294    0.9361 H   0  0  0  0  0  0  0  0  0  0  0  0
    0.7635   -0.5758   -0.8353 H   0  0  0  0  0  0  0  0  0  0  0  0
    0.7427    0.9984    0.0378 H   0  0  0  0  0  0  0  0  0  0  0  0
    4.7987    2.6020   -1.5978 H   0  0  0  0  0  0  0  0  0  0  0  0
    7.2774    2.5904   -1.6253 H   0  0  0  0  0  0  0  0  0  0  0  0
    8.5169    0.5166   -1.0773 H   0  0  0  0  0  0  0  0  0  0  0  0
    7.2946   -1.5410   -0.4799 H   0  0  0  0  0  0  0  0  0  0  0  0
    5.2794   -2.4787   -0.1136 H   0  0  0  0  0  0  0  0  0  0  0  0
  1  2  1  0  0  0  0
  1 12  1  0  0  0  0
  1 13  1  0  0  0  0
  1 14  1  0  0  0  0
  2  3  1  0  0  0  0
  3  4  2  0  0  0  0
  3  5  1  0  0  0  0
  5  6  1  0  0  0  0
  5 10  2  0  0  0  0
  6  7  2  0  0  0  0
  6 15  1  0  0  0  0
  7  8  1  0  0  0  0
  7 16  1  0  0  0  0
  8  9  2  0  0  0  0
  8 17  1  0  0  0  0
  9 10  1  0  0  0  0
  9 18  1  0  0  0  0
 10 11  1  0  0  0  0
 11 19  1  0  0  0  0
M  END
$$$$
