
 OpenBabel07122215493D

 27 26  0  0  0  0  0  0  0  0999 V2000
    1.0376   -0.0625    0.0657 C   0  0  0  0  0  0  0  0  0  0  0  0
    2.5567   -0.0597    0.0533 C   0  0  0  0  0  0  0  0  0  0  0  0
    3.0896    0.2303   -1.3471 C   0  0  0  0  0  0  0  0  0  0  0  0
    4.6159    0.2343   -1.3656 C   0  0  0  0  0  0  0  0  0  0  0  0
    5.1376    0.5242   -2.7710 C   0  0  0  0  0  0  0  0  0  0  0  0
    6.6639    0.5285   -2.7975 C   0  0  0  0  0  0  0  0  0  0  0  0
    7.1859    0.8208   -4.2048 C   0  0  0  0  0  0  0  0  0  0  0  0
    8.7106    0.8229   -4.2209 C   0  0  0  0  0  0  0  0  0  0  0  0
    9.3339    1.2206   -5.8783 S   0  0  0  0  0  0  0  0  0  0  0  0
    0.6667   -0.2715    1.0736 H   0  0  0  0  0  0  0  0  0  0  0  0
    0.6436   -0.8283   -0.6097 H   0  0  0  0  0  0  0  0  0  0  0  0
    0.6435    0.9089   -0.2493 H   0  0  0  0  0  0  0  0  0  0  0  0
    2.9246   -1.0329    0.3983 H   0  0  0  0  0  0  0  0  0  0  0  0
    2.9246    0.6956    0.7568 H   0  0  0  0  0  0  0  0  0  0  0  0
    2.7156    1.2029   -1.6899 H   0  0  0  0  0  0  0  0  0  0  0  0
    2.7153   -0.5249   -2.0482 H   0  0  0  0  0  0  0  0  0  0  0  0
    4.9924   -0.7380   -1.0250 H   0  0  0  0  0  0  0  0  0  0  0  0
    4.9928    0.9908   -0.6675 H   0  0  0  0  0  0  0  0  0  0  0  0
    4.7601    1.4968   -3.1102 H   0  0  0  0  0  0  0  0  0  0  0  0
    4.7580   -0.2315   -3.4685 H   0  0  0  0  0  0  0  0  0  0  0  0
    7.0406   -0.4442   -2.4577 H   0  0  0  0  0  0  0  0  0  0  0  0
    7.0415    1.2844   -2.0990 H   0  0  0  0  0  0  0  0  0  0  0  0
    6.8009    1.7940   -4.5353 H   0  0  0  0  0  0  0  0  0  0  0  0
    6.8002    0.0630   -4.8977 H   0  0  0  0  0  0  0  0  0  0  0  0
    9.0984   -0.1580   -3.9273 H   0  0  0  0  0  0  0  0  0  0  0  0
    9.1005    1.5657   -3.5181 H   0  0  0  0  0  0  0  0  0  0  0  0
    8.7723    0.1798   -6.5104 H   0  0  0  0  0  0  0  0  0  0  0  0
  1  2  1  0  0  0  0
  1 10  1  0  0  0  0
  1 11  1  0  0  0  0
  1 12  1  0  0  0  0
  2  3  1  0  0  0  0
  2 13  1  0  0  0  0
  2 14  1  0  0  0  0
  3  4  1  0  0  0  0
  3 15  1  0  0  0  0
  3 16  1  0  0  0  0
  4  5  1  0  0  0  0
  4 17  1  0  0  0  0
  4 18  1  0  0  0  0
  5  6  1  0  0  0  0
  5 19  1  0  0  0  0
  5 20  1  0  0  0  0
  6  7  1  0  0  0  0
  6 21  1  0  0  0  0
  6 22  1  0  0  0  0
  7  8  1  0  0  0  0
  7 23  1  0  0  0  0
  7 24  1  0  0  0  0
  8  9  1  0  0  0  0
  8 25  1  0  0  0  0
  8 26  1  0  0  0  0
  9 27  1  0  0  0  0
M  END
$$$$
